                                  MODFLOW-2005     
      U.S. GEOLOGICAL SURVEY MODULAR FINITE-DIFFERENCE GROUND-WATER FLOW MODEL
                            VERSION 1.12.00 2/3/2017

 LIST FILE: my_river_model.list
                         UNIT    2

 OPENING my_river_model.dis
 FILE TYPE:DIS   UNIT   11   STATUS:OLD    
 FORMAT:FORMATTED              ACCESS:SEQUENTIAL          

 OPENING my_river_model.bas
 FILE TYPE:BAS6   UNIT   13   STATUS:OLD    
 FORMAT:FORMATTED              ACCESS:SEQUENTIAL          

 OPENING my_river_model.lpf
 FILE TYPE:LPF   UNIT   15   STATUS:OLD    
 FORMAT:FORMATTED              ACCESS:SEQUENTIAL          

 OPENING my_river_model.chd
 FILE TYPE:CHD   UNIT   24   STATUS:OLD    
 FORMAT:FORMATTED              ACCESS:SEQUENTIAL          

 OPENING my_river_model.riv
 FILE TYPE:RIV   UNIT   18   STATUS:OLD    
 FORMAT:FORMATTED              ACCESS:SEQUENTIAL          

 OPENING my_river_model.oc
 FILE TYPE:OC   UNIT   14   STATUS:OLD    
 FORMAT:FORMATTED              ACCESS:SEQUENTIAL          

 OPENING my_river_model.pcg
 FILE TYPE:PCG   UNIT   27   STATUS:OLD    
 FORMAT:FORMATTED              ACCESS:SEQUENTIAL          

 OPENING my_river_model.cbc
 FILE TYPE:DATA(BINARY)   UNIT   53   STATUS:REPLACE
 FORMAT:BINARY                 ACCESS:SEQUENTIAL          

 OPENING my_river_model.hds
 FILE TYPE:DATA(BINARY)   UNIT   51   STATUS:REPLACE
 FORMAT:BINARY                 ACCESS:SEQUENTIAL          

 OPENING my_river_model.ddn
 FILE TYPE:DATA(BINARY)   UNIT   52   STATUS:REPLACE
 FORMAT:BINARY                 ACCESS:SEQUENTIAL          

 BAS -- BASIC PACKAGE, VERSION 7, 5/2/2005 INPUT READ FROM UNIT   13
 
 MODFLOW was compiled using mixed precision
 Precision of REAL variables:           6
 Precision of DOUBLE PRECISION variables:          15

 DISCRETIZATION INPUT DATA READ FROM UNIT   11
 # DIS package for  MODFLOW-2005, generated by Flopy.
    1 LAYERS        25 ROWS        25 COLUMNS
    3 STRESS PERIOD(S) IN SIMULATION
 MODEL TIME UNIT IS DAYS
 MODEL LENGTH UNIT IS METERS
  Confining bed flag for each layer:
   0

                     DELR =   40.0000    

                     DELC =   40.0000    

 TOP ELEVATION OF LAYER 1 =   0.00000    

   MODEL LAYER BOTTOM EL. =  -50.0000     FOR LAYER   1


 STRESS PERIOD     LENGTH       TIME STEPS     MULTIPLIER FOR DELT    SS FLAG
 ----------------------------------------------------------------------------
        1         1.000000          1                    1.000         SS
        2         5.000000         10                    1.000         TR
        3         5.000000         10                    1.000         TR

 COMBINED STEADY-STATE AND TRANSIENT SIMULATION



 
 # BAS6 package for  MODFLOW-2005, generated by Flopy.                           
 THE FREE FORMAT OPTION HAS BEEN SELECTED



                     BOUNDARY ARRAY FOR LAYER   1
 READING ON UNIT   13 WITH FORMAT: (25I10)             

 AQUIFER HEAD WILL BE SET TO  -999.99     AT ALL NO-FLOW NODES (IBOUND=0).



                       INITIAL HEAD FOR LAYER   1
 READING ON UNIT   13 WITH FORMAT: (25E15.6)           
 # OC package for  MODFLOW-2005, generated by Flopy.

 OUTPUT CONTROL IS SPECIFIED ONLY AT TIME STEPS FOR WHICH OUTPUT IS DESIRED
 COMPACT CELL-BY-CELL BUDGET FILES WILL BE WRITTEN
 AUXILIARY DATA WILL BE SAVED IN CELL-BY-CELL BUDGET FILES
 HEAD PRINT FORMAT CODE IS   0    DRAWDOWN PRINT FORMAT CODE IS   0
 HEADS WILL BE SAVED ON UNIT   51    DRAWDOWNS WILL BE SAVED ON UNIT   52

 LPF -- LAYER-PROPERTY FLOW PACKAGE, VERSION 7, 5/2/2005
         INPUT READ FROM UNIT   15
 # LPF package for  MODFLOW-2005, generated by Flopy.
 CELL-BY-CELL FLOWS WILL BE SAVED ON UNIT   53
 HEAD AT CELLS THAT CONVERT TO DRY= -1.00000E+30
 No named parameters

   LAYER FLAGS:
 LAYER       LAYTYP        LAYAVG         CHANI        LAYVKA        LAYWET
 ---------------------------------------------------------------------------
    1             1             0     1.000E+00             0             0

   INTERPRETATION OF LAYER FLAGS:
                        INTERBLOCK     HORIZONTAL    DATA IN
         LAYER TYPE   TRANSMISSIVITY   ANISOTROPY   ARRAY VKA   WETTABILITY
 LAYER      (LAYTYP)      (LAYAVG)       (CHANI)      (LAYVKA)      (LAYWET)
 ---------------------------------------------------------------------------
    1   CONVERTIBLE      HARMONIC     1.000E+00    VERTICAL K  NON-WETTABLE

 WETTING CAPABILITY IS NOT ACTIVE IN ANY LAYER

    HYD. COND. ALONG ROWS =   1.00000     FOR LAYER   1

      VERTICAL HYD. COND. =   1.00000     FOR LAYER   1

         SPECIFIC STORAGE =  1.000000E-04 FOR LAYER   1

           SPECIFIC YIELD =  0.100000     FOR LAYER   1

 RIV -- RIVER PACKAGE, VERSION 7, 5/2/2005 INPUT READ FROM UNIT   18
 # RIV package for  MODFLOW-2005, generated by Flopy.
 No named parameters
 MAXIMUM OF     25 ACTIVE RIVER REACHES AT ONE TIME


     0 River parameters

 CHD -- TIME-VARIANT SPECIFIED-HEAD OPTION, VERSION 7, 5/2/2005
 INPUT READ FROM UNIT   24
 # CHD package for  MODFLOW-2005, generated by Flopy.
 No named parameters
 MAXIMUM OF     50 TIME-VARIANT SPECIFIED-HEAD CELLS AT ONE TIME


     0 TIME-VARIANT SPECIFIED-HEAD PARAMETERS

 PCG -- CONJUGATE-GRADIENT SOLUTION PACKAGE, VERSION 7, 5/2/2005
 # PCG package for  MODFLOW-2005, generated by Flopy.
 MAXIMUM OF     50 CALLS OF SOLUTION ROUTINE
 MAXIMUM OF     30 INTERNAL ITERATIONS PER CALL TO SOLUTION ROUTINE
 MATRIX PRECONDITIONING TYPE :    1



                                    SOLUTION BY THE CONJUGATE-GRADIENT METHOD
                                   -------------------------------------------
                    MAXIMUM NUMBER OF CALLS TO PCG ROUTINE =       50
                        MAXIMUM ITERATIONS PER CALL TO PCG =       30
                               MATRIX PRECONDITIONING TYPE =        1
        RELAXATION FACTOR (ONLY USED WITH PRECOND. TYPE 1) =    0.10000E+01
 PARAMETER OF POLYNOMIAL PRECOND. = 2 (2) OR IS CALCULATED :        0
                         HEAD CHANGE CRITERION FOR CLOSURE =    0.10000E-04
                     RESIDUAL CHANGE CRITERION FOR CLOSURE =    0.10000E-04
            PCG HEAD AND RESIDUAL CHANGE PRINTOUT INTERVAL =      999
     PRINTING FROM SOLVER IS LIMITED(1) OR SUPPRESSED (>1) =        3
                            STEADY-STATE DAMPING PARAMETER =    0.10000E+01
                               TRANSIENT DAMPING PARAMETER =    0.10000E+01
1
                            STRESS PERIOD NO.    1, LENGTH =   1.000000    
                            -----------------------------------------------

                              NUMBER OF TIME STEPS =     1

                               MULTIPLIER FOR DELT =     1.000

                            INITIAL TIME STEP SIZE =   1.000000    

 REACH NO.  LAYER   ROW   COL     STAGE      CONDUCTANCE     BOTTOM EL.         
 -------------------------------------------------------------------------------
      1      1      1     13       1.000           1600.           0.000    
      2      1      2     13       1.000           1600.           0.000    
      3      1      3     13       1.000           1600.           0.000    
      4      1      4     13       1.000           1600.           0.000    
      5      1      5     13       1.000           1600.           0.000    
      6      1      6     13       1.000           1600.           0.000    
      7      1      7     13       1.000           1600.           0.000    
      8      1      8     13       1.000           1600.           0.000    
      9      1      9     13       1.000           1600.           0.000    
     10      1     10     13       1.000           1600.           0.000    
     11      1     11     13       1.000           1600.           0.000    
     12      1     12     13       1.000           1600.           0.000    
     13      1     13     13       1.000           1600.           0.000    
     14      1     14     13       1.000           1600.           0.000    
     15      1     15     13       1.000           1600.           0.000    
     16      1     16     13       1.000           1600.           0.000    
     17      1     17     13       1.000           1600.           0.000    
     18      1     18     13       1.000           1600.           0.000    
     19      1     19     13       1.000           1600.           0.000    
     20      1     20     13       1.000           1600.           0.000    
     21      1     21     13       1.000           1600.           0.000    
     22      1     22     13       1.000           1600.           0.000    
     23      1     23     13       1.000           1600.           0.000    
     24      1     24     13       1.000           1600.           0.000    
     25      1     25     13       1.000           1600.           0.000    

     25 RIVER REACHES

 CHD NO.   LAYER   ROW   COL    START HEAD        END HEAD         
 ------------------------------------------------------------------
      1      1      1      1       2.000           2.000    
      2      1      1     25       2.000           2.000    
      3      1      2      1       2.000           2.000    
      4      1      2     25       2.000           2.000    
      5      1      3      1       2.000           2.000    
      6      1      3     25       2.000           2.000    
      7      1      4      1       2.000           2.000    
      8      1      4     25       2.000           2.000    
      9      1      5      1       2.000           2.000    
     10      1      5     25       2.000           2.000    
     11      1      6      1       2.000           2.000    
     12      1      6     25       2.000           2.000    
     13      1      7      1       2.000           2.000    
     14      1      7     25       2.000           2.000    
     15      1      8      1       2.000           2.000    
     16      1      8     25       2.000           2.000    
     17      1      9      1       2.000           2.000    
     18      1      9     25       2.000           2.000    
     19      1     10      1       2.000           2.000    
     20      1     10     25       2.000           2.000    
     21      1     11      1       2.000           2.000    
     22      1     11     25       2.000           2.000    
     23      1     12      1       2.000           2.000    
     24      1     12     25       2.000           2.000    
     25      1     13      1       2.000           2.000    
     26      1     13     25       2.000           2.000    
     27      1     14      1       2.000           2.000    
     28      1     14     25       2.000           2.000    
     29      1     15      1       2.000           2.000    
     30      1     15     25       2.000           2.000    
     31      1     16      1       2.000           2.000    
     32      1     16     25       2.000           2.000    
     33      1     17      1       2.000           2.000    
     34      1     17     25       2.000           2.000    
     35      1     18      1       2.000           2.000    
     36      1     18     25       2.000           2.000    
     37      1     19      1       2.000           2.000    
     38      1     19     25       2.000           2.000    
     39      1     20      1       2.000           2.000    
     40      1     20     25       2.000           2.000    
     41      1     21      1       2.000           2.000    
     42      1     21     25       2.000           2.000    
     43      1     22      1       2.000           2.000    
     44      1     22     25       2.000           2.000    
     45      1     23      1       2.000           2.000    
     46      1     23     25       2.000           2.000    
     47      1     24      1       2.000           2.000    
     48      1     24     25       2.000           2.000    
     49      1     25      1       2.000           2.000    
     50      1     25     25       2.000           2.000    


     50 TIME-VARIANT SPECIFIED-HEAD CELLS
 
 SOLVING FOR HEAD 

 OUTPUT CONTROL FOR STRESS PERIOD    1   TIME STEP    1
    SAVE HEAD FOR ALL LAYERS
    SAVE DRAWDOWN FOR ALL LAYERS
    SAVE BUDGET
    PRINT HEAD FOR ALL LAYERS
    PRINT BUDGET
 UBDSV2 SAVING "   CONSTANT HEAD" ON UNIT  53 AT TIME STEP  1, STRESS PERIOD   1
 UBDSV1 SAVING "FLOW RIGHT FACE " ON UNIT  53 AT TIME STEP  1, STRESS PERIOD   1
 UBDSV1 SAVING "FLOW FRONT FACE " ON UNIT  53 AT TIME STEP  1, STRESS PERIOD   1
1
              HEAD IN LAYER   1 AT END OF TIME STEP   1 IN STRESS PERIOD    1
  ---------------------------------------------------------------------------

            1           2           3           4           5           6           7           8           9          10
           11          12          13          14          15          16          17          18          19          20
           21          22          23          24          25
 ........................................................................................................................
   1    2.000       1.917       1.834       1.751       1.668       1.585       1.503       1.420       1.337       1.254    
        1.171       1.088       1.005       1.088       1.171       1.254       1.337       1.420       1.503       1.585    
        1.668       1.751       1.834       1.917       2.000    
   2    2.000       1.917       1.834       1.751       1.668       1.585       1.503       1.420       1.337       1.254    
        1.171       1.088       1.005       1.088       1.171       1.254       1.337       1.420       1.503       1.585    
        1.668       1.751       1.834       1.917       2.000    
   3    2.000       1.917       1.834       1.751       1.668       1.585       1.503       1.420       1.337       1.254    
        1.171       1.088       1.005       1.088       1.171       1.254       1.337       1.420       1.503       1.585    
        1.668       1.751       1.834       1.917       2.000    
   4    2.000       1.917       1.834       1.751       1.668       1.585       1.503       1.420       1.337       1.254    
        1.171       1.088       1.005       1.088       1.171       1.254       1.337       1.420       1.503       1.585    
        1.668       1.751       1.834       1.917       2.000    
   5    2.000       1.917       1.834       1.751       1.668       1.585       1.503       1.420       1.337       1.254    
        1.171       1.088       1.005       1.088       1.171       1.254       1.337       1.420       1.503       1.585    
        1.668       1.751       1.834       1.917       2.000    
   6    2.000       1.917       1.834       1.751       1.668       1.585       1.503       1.420       1.337       1.254    
        1.171       1.088       1.005       1.088       1.171       1.254       1.337       1.420       1.503       1.585    
        1.668       1.751       1.834       1.917       2.000    
   7    2.000       1.917       1.834       1.751       1.668       1.585       1.503       1.420       1.337       1.254    
        1.171       1.088       1.005       1.088       1.171       1.254       1.337       1.420       1.503       1.585    
        1.668       1.751       1.834       1.917       2.000    
   8    2.000       1.917       1.834       1.751       1.668       1.585       1.503       1.420       1.337       1.254    
        1.171       1.088       1.005       1.088       1.171       1.254       1.337       1.420       1.503       1.585    
        1.668       1.751       1.834       1.917       2.000    
   9    2.000       1.917       1.834       1.751       1.668       1.585       1.503       1.420       1.337       1.254    
        1.171       1.088       1.005       1.088       1.171       1.254       1.337       1.420       1.503       1.585    
        1.668       1.751       1.834       1.917       2.000    
  10    2.000       1.917       1.834       1.751       1.668       1.585       1.503       1.420       1.337       1.254    
        1.171       1.088       1.005       1.088       1.171       1.254       1.337       1.420       1.503       1.585    
        1.668       1.751       1.834       1.917       2.000    
  11    2.000       1.917       1.834       1.751       1.668       1.585       1.503       1.420       1.337       1.254    
        1.171       1.088       1.005       1.088       1.171       1.254       1.337       1.420       1.503       1.585    
        1.668       1.751       1.834       1.917       2.000    
  12    2.000       1.917       1.834       1.751       1.668       1.585       1.503       1.420       1.337       1.254    
        1.171       1.088       1.005       1.088       1.171       1.254       1.337       1.420       1.503       1.585    
        1.668       1.751       1.834       1.917       2.000    
  13    2.000       1.917       1.834       1.751       1.668       1.585       1.503       1.420       1.337       1.254    
        1.171       1.088       1.005       1.088       1.171       1.254       1.337       1.420       1.503       1.585    
        1.668       1.751       1.834       1.917       2.000    
  14    2.000       1.917       1.834       1.751       1.668       1.585       1.503       1.420       1.337       1.254    
        1.171       1.088       1.005       1.088       1.171       1.254       1.337       1.420       1.503       1.585    
        1.668       1.751       1.834       1.917       2.000    
  15    2.000       1.917       1.834       1.751       1.668       1.585       1.503       1.420       1.337       1.254    
        1.171       1.088       1.005       1.088       1.171       1.254       1.337       1.420       1.503       1.585    
        1.668       1.751       1.834       1.917       2.000    
  16    2.000       1.917       1.834       1.751       1.668       1.585       1.503       1.420       1.337       1.254    
        1.171       1.088       1.005       1.088       1.171       1.254       1.337       1.420       1.503       1.585    
        1.668       1.751       1.834       1.917       2.000    
  17    2.000       1.917       1.834       1.751       1.668       1.585       1.503       1.420       1.337       1.254    
        1.171       1.088       1.005       1.088       1.171       1.254       1.337       1.420       1.503       1.585    
        1.668       1.751       1.834       1.917       2.000    
  18    2.000       1.917       1.834       1.751       1.668       1.585       1.503       1.420       1.337       1.254    
        1.171       1.088       1.005       1.088       1.171       1.254       1.337       1.420       1.503       1.585    
        1.668       1.751       1.834       1.917       2.000    
  19    2.000       1.917       1.834       1.751       1.668       1.585       1.503       1.420       1.337       1.254    
        1.171       1.088       1.005       1.088       1.171       1.254       1.337       1.420       1.503       1.585    
        1.668       1.751       1.834       1.917       2.000    
  20    2.000       1.917       1.834       1.751       1.668       1.585       1.503       1.420       1.337       1.254    
        1.171       1.088       1.005       1.088       1.171       1.254       1.337       1.420       1.503       1.585    
        1.668       1.751       1.834       1.917       2.000    
  21    2.000       1.917       1.834       1.751       1.668       1.585       1.503       1.420       1.337       1.254    
        1.171       1.088       1.005       1.088       1.171       1.254       1.337       1.420       1.503       1.585    
        1.668       1.751       1.834       1.917       2.000    
  22    2.000       1.917       1.834       1.751       1.668       1.585       1.503       1.420       1.337       1.254    
        1.171       1.088       1.005       1.088       1.171       1.254       1.337       1.420       1.503       1.585    
        1.668       1.751       1.834       1.917       2.000    
  23    2.000       1.917       1.834       1.751       1.668       1.585       1.503       1.420       1.337       1.254    
        1.171       1.088       1.005       1.088       1.171       1.254       1.337       1.420       1.503       1.585    
        1.668       1.751       1.834       1.917       2.000    
  24    2.000       1.917       1.834       1.751       1.668       1.585       1.503       1.420       1.337       1.254    
        1.171       1.088       1.005       1.088       1.171       1.254       1.337       1.420       1.503       1.585    
        1.668       1.751       1.834       1.917       2.000    
  25    2.000       1.917       1.834       1.751       1.668       1.585       1.503       1.420       1.337       1.254    
        1.171       1.088       1.005       1.088       1.171       1.254       1.337       1.420       1.503       1.585    
        1.668       1.751       1.834       1.917       2.000    

 HEAD WILL BE SAVED ON UNIT   51 AT END OF TIME STEP    1, STRESS PERIOD    1

 DRAWDOWN WILL BE SAVED ON UNIT   52 AT END OF TIME STEP    1, STRESS PERIOD    1
1
  VOLUMETRIC BUDGET FOR ENTIRE MODEL AT END OF TIME STEP    1, STRESS PERIOD   1
  ------------------------------------------------------------------------------

     CUMULATIVE VOLUMES      L**3       RATES FOR THIS TIME STEP      L**3/T
     ------------------                 ------------------------

           IN:                                      IN:
           ---                                      ---
             STORAGE =           0.0000               STORAGE =           0.0000
       CONSTANT HEAD =         207.2539         CONSTANT HEAD =         207.2539
       RIVER LEAKAGE =           0.0000         RIVER LEAKAGE =           0.0000

            TOTAL IN =         207.2539              TOTAL IN =         207.2539

          OUT:                                     OUT:
          ----                                     ----
             STORAGE =           0.0000               STORAGE =           0.0000
       CONSTANT HEAD =           0.0000         CONSTANT HEAD =           0.0000
       RIVER LEAKAGE =         207.2539         RIVER LEAKAGE =         207.2539

           TOTAL OUT =         207.2539             TOTAL OUT =         207.2539

            IN - OUT =       1.5259E-05              IN - OUT =       1.5259E-05

 PERCENT DISCREPANCY =           0.00     PERCENT DISCREPANCY =           0.00






         TIME SUMMARY AT END OF TIME STEP    1 IN STRESS PERIOD    1
                    SECONDS     MINUTES      HOURS       DAYS        YEARS
                    -----------------------------------------------------------
   TIME STEP LENGTH  86400.      1440.0      24.000      1.0000     2.73785E-03
 STRESS PERIOD TIME  86400.      1440.0      24.000      1.0000     2.73785E-03
         TOTAL TIME  86400.      1440.0      24.000      1.0000     2.73785E-03
1
1
                            STRESS PERIOD NO.    2, LENGTH =   5.000000    
                            -----------------------------------------------

                              NUMBER OF TIME STEPS =    10

                               MULTIPLIER FOR DELT =     1.000

                            INITIAL TIME STEP SIZE =  0.5000000    

 REACH NO.  LAYER   ROW   COL     STAGE      CONDUCTANCE     BOTTOM EL.         
 -------------------------------------------------------------------------------
      1      1      1     13       5.000           1600.           0.000    
      2      1      2     13       5.000           1600.           0.000    
      3      1      3     13       5.000           1600.           0.000    
      4      1      4     13       5.000           1600.           0.000    
      5      1      5     13       5.000           1600.           0.000    
      6      1      6     13       5.000           1600.           0.000    
      7      1      7     13       5.000           1600.           0.000    
      8      1      8     13       5.000           1600.           0.000    
      9      1      9     13       5.000           1600.           0.000    
     10      1     10     13       5.000           1600.           0.000    
     11      1     11     13       5.000           1600.           0.000    
     12      1     12     13       5.000           1600.           0.000    
     13      1     13     13       5.000           1600.           0.000    
     14      1     14     13       5.000           1600.           0.000    
     15      1     15     13       5.000           1600.           0.000    
     16      1     16     13       5.000           1600.           0.000    
     17      1     17     13       5.000           1600.           0.000    
     18      1     18     13       5.000           1600.           0.000    
     19      1     19     13       5.000           1600.           0.000    
     20      1     20     13       5.000           1600.           0.000    
     21      1     21     13       5.000           1600.           0.000    
     22      1     22     13       5.000           1600.           0.000    
     23      1     23     13       5.000           1600.           0.000    
     24      1     24     13       5.000           1600.           0.000    
     25      1     25     13       5.000           1600.           0.000    

     25 RIVER REACHES

 REUSING NON-PARAMETER SPECIFIED-HEAD DATA FROM LAST STRESS PERIOD


     50 TIME-VARIANT SPECIFIED-HEAD CELLS
 
 SOLVING FOR HEAD 

 OUTPUT CONTROL FOR STRESS PERIOD    2   TIME STEP    1
    SAVE HEAD FOR ALL LAYERS
    SAVE DRAWDOWN FOR ALL LAYERS
    SAVE BUDGET
    PRINT HEAD FOR ALL LAYERS
    PRINT BUDGET
 UBDSV1 SAVING "         STORAGE" ON UNIT  53 AT TIME STEP  1, STRESS PERIOD   2
 UBDSV2 SAVING "   CONSTANT HEAD" ON UNIT  53 AT TIME STEP  1, STRESS PERIOD   2
 UBDSV1 SAVING "FLOW RIGHT FACE " ON UNIT  53 AT TIME STEP  1, STRESS PERIOD   2
 UBDSV1 SAVING "FLOW FRONT FACE " ON UNIT  53 AT TIME STEP  1, STRESS PERIOD   2
1
              HEAD IN LAYER   1 AT END OF TIME STEP   1 IN STRESS PERIOD    2
  ---------------------------------------------------------------------------

            1           2           3           4           5           6           7           8           9          10
           11          12          13          14          15          16          17          18          19          20
           21          22          23          24          25
 ........................................................................................................................
   1    2.000       1.923       1.847       1.776       1.712       1.663       1.638       1.656       1.750       1.976    
        2.434       3.295       4.863       3.295       2.434       1.976       1.750       1.656       1.638       1.663    
        1.712       1.776       1.847       1.923       2.000    
   2    2.000       1.923       1.847       1.776       1.712       1.663       1.638       1.656       1.750       1.976    
        2.434       3.295       4.863       3.295       2.434       1.976       1.750       1.656       1.638       1.663    
        1.712       1.776       1.847       1.923       2.000    
   3    2.000       1.923       1.847       1.776       1.712       1.663       1.638       1.656       1.750       1.976    
        2.434       3.295       4.863       3.295       2.434       1.976       1.750       1.656       1.638       1.663    
        1.712       1.776       1.847       1.923       2.000    
   4    2.000       1.923       1.847       1.776       1.712       1.663       1.638       1.656       1.750       1.976    
        2.434       3.295       4.863       3.295       2.434       1.976       1.750       1.656       1.638       1.663    
        1.712       1.776       1.847       1.923       2.000    
   5    2.000       1.923       1.847       1.776       1.712       1.663       1.638       1.656       1.750       1.976    
        2.434       3.295       4.863       3.295       2.434       1.976       1.750       1.656       1.638       1.663    
        1.712       1.776       1.847       1.923       2.000    
   6    2.000       1.923       1.847       1.776       1.712       1.663       1.638       1.656       1.750       1.976    
        2.434       3.295       4.863       3.295       2.434       1.976       1.750       1.656       1.638       1.663    
        1.712       1.776       1.847       1.923       2.000    
   7    2.000       1.923       1.847       1.776       1.712       1.663       1.638       1.656       1.750       1.976    
        2.434       3.295       4.863       3.295       2.434       1.976       1.750       1.656       1.638       1.663    
        1.712       1.776       1.847       1.923       2.000    
   8    2.000       1.923       1.847       1.776       1.712       1.663       1.638       1.656       1.750       1.976    
        2.434       3.295       4.863       3.295       2.434       1.976       1.750       1.656       1.638       1.663    
        1.712       1.776       1.847       1.923       2.000    
   9    2.000       1.923       1.847       1.776       1.712       1.663       1.638       1.656       1.750       1.976    
        2.434       3.295       4.863       3.295       2.434       1.976       1.750       1.656       1.638       1.663    
        1.712       1.776       1.847       1.923       2.000    
  10    2.000       1.923       1.847       1.776       1.712       1.663       1.638       1.656       1.750       1.976    
        2.434       3.295       4.863       3.295       2.434       1.976       1.750       1.656       1.638       1.663    
        1.712       1.776       1.847       1.923       2.000    
  11    2.000       1.923       1.847       1.776       1.712       1.663       1.638       1.656       1.750       1.976    
        2.434       3.295       4.863       3.295       2.434       1.976       1.750       1.656       1.638       1.663    
        1.712       1.776       1.847       1.923       2.000    
  12    2.000       1.923       1.847       1.776       1.712       1.663       1.638       1.656       1.750       1.976    
        2.434       3.295       4.863       3.295       2.434       1.976       1.750       1.656       1.638       1.663    
        1.712       1.776       1.847       1.923       2.000    
  13    2.000       1.923       1.847       1.776       1.712       1.663       1.638       1.656       1.750       1.976    
        2.434       3.295       4.863       3.295       2.434       1.976       1.750       1.656       1.638       1.663    
        1.712       1.776       1.847       1.923       2.000    
  14    2.000       1.923       1.847       1.776       1.712       1.663       1.638       1.656       1.750       1.976    
        2.434       3.295       4.863       3.295       2.434       1.976       1.750       1.656       1.638       1.663    
        1.712       1.776       1.847       1.923       2.000    
  15    2.000       1.923       1.847       1.776       1.712       1.663       1.638       1.656       1.750       1.976    
        2.434       3.295       4.863       3.295       2.434       1.976       1.750       1.656       1.638       1.663    
        1.712       1.776       1.847       1.923       2.000    
  16    2.000       1.923       1.847       1.776       1.712       1.663       1.638       1.656       1.750       1.976    
        2.434       3.295       4.863       3.295       2.434       1.976       1.750       1.656       1.638       1.663    
        1.712       1.776       1.847       1.923       2.000    
  17    2.000       1.923       1.847       1.776       1.712       1.663       1.638       1.656       1.750       1.976    
        2.434       3.295       4.863       3.295       2.434       1.976       1.750       1.656       1.638       1.663    
        1.712       1.776       1.847       1.923       2.000    
  18    2.000       1.923       1.847       1.776       1.712       1.663       1.638       1.656       1.750       1.976    
        2.434       3.295       4.863       3.295       2.434       1.976       1.750       1.656       1.638       1.663    
        1.712       1.776       1.847       1.923       2.000    
  19    2.000       1.923       1.847       1.776       1.712       1.663       1.638       1.656       1.750       1.976    
        2.434       3.295       4.863       3.295       2.434       1.976       1.750       1.656       1.638       1.663    
        1.712       1.776       1.847       1.923       2.000    
  20    2.000       1.923       1.847       1.776       1.712       1.663       1.638       1.656       1.750       1.976    
        2.434       3.295       4.863       3.295       2.434       1.976       1.750       1.656       1.638       1.663    
        1.712       1.776       1.847       1.923       2.000    
  21    2.000       1.923       1.847       1.776       1.712       1.663       1.638       1.656       1.750       1.976    
        2.434       3.295       4.863       3.295       2.434       1.976       1.750       1.656       1.638       1.663    
        1.712       1.776       1.847       1.923       2.000    
  22    2.000       1.923       1.847       1.776       1.712       1.663       1.638       1.656       1.750       1.976    
        2.434       3.295       4.863       3.295       2.434       1.976       1.750       1.656       1.638       1.663    
        1.712       1.776       1.847       1.923       2.000    
  23    2.000       1.923       1.847       1.776       1.712       1.663       1.638       1.656       1.750       1.976    
        2.434       3.295       4.863       3.295       2.434       1.976       1.750       1.656       1.638       1.663    
        1.712       1.776       1.847       1.923       2.000    
  24    2.000       1.923       1.847       1.776       1.712       1.663       1.638       1.656       1.750       1.976    
        2.434       3.295       4.863       3.295       2.434       1.976       1.750       1.656       1.638       1.663    
        1.712       1.776       1.847       1.923       2.000    
  25    2.000       1.923       1.847       1.776       1.712       1.663       1.638       1.656       1.750       1.976    
        2.434       3.295       4.863       3.295       2.434       1.976       1.750       1.656       1.638       1.663    
        1.712       1.776       1.847       1.923       2.000    

 HEAD WILL BE SAVED ON UNIT   51 AT END OF TIME STEP    1, STRESS PERIOD    2

 DRAWDOWN WILL BE SAVED ON UNIT   52 AT END OF TIME STEP    1, STRESS PERIOD    2
1
  VOLUMETRIC BUDGET FOR ENTIRE MODEL AT END OF TIME STEP    1, STRESS PERIOD   2
  ------------------------------------------------------------------------------

     CUMULATIVE VOLUMES      L**3       RATES FOR THIS TIME STEP      L**3/T
     ------------------                 ------------------------

           IN:                                      IN:
           ---                                      ---
             STORAGE =           0.0000               STORAGE =           0.0000
       CONSTANT HEAD =         303.9068         CONSTANT HEAD =         193.3058
       RIVER LEAKAGE =        2731.5952         RIVER LEAKAGE =        5463.1904

            TOTAL IN =        3035.5020              TOTAL IN =        5656.4961

          OUT:                                     OUT:
          ----                                     ----
             STORAGE =        2828.2493               STORAGE =        5656.4985
       CONSTANT HEAD =           0.0000         CONSTANT HEAD =           0.0000
       RIVER LEAKAGE =         207.2539         RIVER LEAKAGE =           0.0000

           TOTAL OUT =        3035.5032             TOTAL OUT =        5656.4985

            IN - OUT =      -1.2207E-03              IN - OUT =      -2.4414E-03

 PERCENT DISCREPANCY =          -0.00     PERCENT DISCREPANCY =          -0.00






         TIME SUMMARY AT END OF TIME STEP    1 IN STRESS PERIOD    2
                    SECONDS     MINUTES      HOURS       DAYS        YEARS
                    -----------------------------------------------------------
   TIME STEP LENGTH  43200.      720.00      12.000     0.50000     1.36893E-03
 STRESS PERIOD TIME  43200.      720.00      12.000     0.50000     1.36893E-03
         TOTAL TIME 1.29600E+05  2160.0      36.000      1.5000     4.10678E-03
1
 
 SOLVING FOR HEAD 

 OUTPUT CONTROL FOR STRESS PERIOD    2   TIME STEP    2
    SAVE HEAD FOR ALL LAYERS
    SAVE DRAWDOWN FOR ALL LAYERS
    SAVE BUDGET
    PRINT HEAD FOR ALL LAYERS
    PRINT BUDGET
 UBDSV1 SAVING "         STORAGE" ON UNIT  53 AT TIME STEP  2, STRESS PERIOD   2
 UBDSV2 SAVING "   CONSTANT HEAD" ON UNIT  53 AT TIME STEP  2, STRESS PERIOD   2
 UBDSV1 SAVING "FLOW RIGHT FACE " ON UNIT  53 AT TIME STEP  2, STRESS PERIOD   2
 UBDSV1 SAVING "FLOW FRONT FACE " ON UNIT  53 AT TIME STEP  2, STRESS PERIOD   2
1
              HEAD IN LAYER   1 AT END OF TIME STEP   2 IN STRESS PERIOD    2
  ---------------------------------------------------------------------------

            1           2           3           4           5           6           7           8           9          10
           11          12          13          14          15          16          17          18          19          20
           21          22          23          24          25
 ........................................................................................................................
   1    2.000       1.938       1.881       1.835       1.807       1.810       1.860       1.982       2.208       2.580    
        3.145       3.938       4.937       3.938       3.145       2.580       2.208       1.982       1.860       1.810    
        1.807       1.835       1.881       1.938       2.000    
   2    2.000       1.938       1.881       1.835       1.807       1.810       1.860       1.982       2.208       2.580    
        3.145       3.938       4.937       3.938       3.145       2.580       2.208       1.982       1.860       1.810    
        1.807       1.835       1.881       1.938       2.000    
   3    2.000       1.938       1.881       1.835       1.807       1.810       1.860       1.982       2.208       2.580    
        3.145       3.938       4.937       3.938       3.145       2.580       2.208       1.982       1.860       1.810    
        1.807       1.835       1.881       1.938       2.000    
   4    2.000       1.938       1.881       1.835       1.807       1.810       1.860       1.982       2.208       2.580    
        3.145       3.938       4.937       3.938       3.145       2.580       2.208       1.982       1.860       1.810    
        1.807       1.835       1.881       1.938       2.000    
   5    2.000       1.938       1.881       1.835       1.807       1.810       1.860       1.982       2.208       2.580    
        3.145       3.938       4.937       3.938       3.145       2.580       2.208       1.982       1.860       1.810    
        1.807       1.835       1.881       1.938       2.000    
   6    2.000       1.938       1.881       1.835       1.807       1.810       1.860       1.982       2.208       2.580    
        3.145       3.938       4.937       3.938       3.145       2.580       2.208       1.982       1.860       1.810    
        1.807       1.835       1.881       1.938       2.000    
   7    2.000       1.938       1.881       1.835       1.807       1.810       1.860       1.982       2.208       2.580    
        3.145       3.938       4.937       3.938       3.145       2.580       2.208       1.982       1.860       1.810    
        1.807       1.835       1.881       1.938       2.000    
   8    2.000       1.938       1.881       1.835       1.807       1.810       1.860       1.982       2.208       2.580    
        3.145       3.938       4.937       3.938       3.145       2.580       2.208       1.982       1.860       1.810    
        1.807       1.835       1.881       1.938       2.000    
   9    2.000       1.938       1.881       1.835       1.807       1.810       1.860       1.982       2.208       2.580    
        3.145       3.938       4.937       3.938       3.145       2.580       2.208       1.982       1.860       1.810    
        1.807       1.835       1.881       1.938       2.000    
  10    2.000       1.938       1.881       1.835       1.807       1.810       1.860       1.982       2.208       2.580    
        3.145       3.938       4.937       3.938       3.145       2.580       2.208       1.982       1.860       1.810    
        1.807       1.835       1.881       1.938       2.000    
  11    2.000       1.938       1.881       1.835       1.807       1.810       1.860       1.982       2.208       2.580    
        3.145       3.938       4.937       3.938       3.145       2.580       2.208       1.982       1.860       1.810    
        1.807       1.835       1.881       1.938       2.000    
  12    2.000       1.938       1.881       1.835       1.807       1.810       1.860       1.982       2.208       2.580    
        3.145       3.938       4.937       3.938       3.145       2.580       2.208       1.982       1.860       1.810    
        1.807       1.835       1.881       1.938       2.000    
  13    2.000       1.938       1.881       1.835       1.807       1.810       1.860       1.982       2.208       2.580    
        3.145       3.938       4.937       3.938       3.145       2.580       2.208       1.982       1.860       1.810    
        1.807       1.835       1.881       1.938       2.000    
  14    2.000       1.938       1.881       1.835       1.807       1.810       1.860       1.982       2.208       2.580    
        3.145       3.938       4.937       3.938       3.145       2.580       2.208       1.982       1.860       1.810    
        1.807       1.835       1.881       1.938       2.000    
  15    2.000       1.938       1.881       1.835       1.807       1.810       1.860       1.982       2.208       2.580    
        3.145       3.938       4.937       3.938       3.145       2.580       2.208       1.982       1.860       1.810    
        1.807       1.835       1.881       1.938       2.000    
  16    2.000       1.938       1.881       1.835       1.807       1.810       1.860       1.982       2.208       2.580    
        3.145       3.938       4.937       3.938       3.145       2.580       2.208       1.982       1.860       1.810    
        1.807       1.835       1.881       1.938       2.000    
  17    2.000       1.938       1.881       1.835       1.807       1.810       1.860       1.982       2.208       2.580    
        3.145       3.938       4.937       3.938       3.145       2.580       2.208       1.982       1.860       1.810    
        1.807       1.835       1.881       1.938       2.000    
  18    2.000       1.938       1.881       1.835       1.807       1.810       1.860       1.982       2.208       2.580    
        3.145       3.938       4.937       3.938       3.145       2.580       2.208       1.982       1.860       1.810    
        1.807       1.835       1.881       1.938       2.000    
  19    2.000       1.938       1.881       1.835       1.807       1.810       1.860       1.982       2.208       2.580    
        3.145       3.938       4.937       3.938       3.145       2.580       2.208       1.982       1.860       1.810    
        1.807       1.835       1.881       1.938       2.000    
  20    2.000       1.938       1.881       1.835       1.807       1.810       1.860       1.982       2.208       2.580    
        3.145       3.938       4.937       3.938       3.145       2.580       2.208       1.982       1.860       1.810    
        1.807       1.835       1.881       1.938       2.000    
  21    2.000       1.938       1.881       1.835       1.807       1.810       1.860       1.982       2.208       2.580    
        3.145       3.938       4.937       3.938       3.145       2.580       2.208       1.982       1.860       1.810    
        1.807       1.835       1.881       1.938       2.000    
  22    2.000       1.938       1.881       1.835       1.807       1.810       1.860       1.982       2.208       2.580    
        3.145       3.938       4.937       3.938       3.145       2.580       2.208       1.982       1.860       1.810    
        1.807       1.835       1.881       1.938       2.000    
  23    2.000       1.938       1.881       1.835       1.807       1.810       1.860       1.982       2.208       2.580    
        3.145       3.938       4.937       3.938       3.145       2.580       2.208       1.982       1.860       1.810    
        1.807       1.835       1.881       1.938       2.000    
  24    2.000       1.938       1.881       1.835       1.807       1.810       1.860       1.982       2.208       2.580    
        3.145       3.938       4.937       3.938       3.145       2.580       2.208       1.982       1.860       1.810    
        1.807       1.835       1.881       1.938       2.000    
  25    2.000       1.938       1.881       1.835       1.807       1.810       1.860       1.982       2.208       2.580    
        3.145       3.938       4.937       3.938       3.145       2.580       2.208       1.982       1.860       1.810    
        1.807       1.835       1.881       1.938       2.000    

 HEAD WILL BE SAVED ON UNIT   51 AT END OF TIME STEP    2, STRESS PERIOD    2

 DRAWDOWN WILL BE SAVED ON UNIT   52 AT END OF TIME STEP    2, STRESS PERIOD    2
1
  VOLUMETRIC BUDGET FOR ENTIRE MODEL AT END OF TIME STEP    2, STRESS PERIOD   2
  ------------------------------------------------------------------------------

     CUMULATIVE VOLUMES      L**3       RATES FOR THIS TIME STEP      L**3/T
     ------------------                 ------------------------

           IN:                                      IN:
           ---                                      ---
             STORAGE =           0.0000               STORAGE =           0.0000
       CONSTANT HEAD =         381.3951         CONSTANT HEAD =         154.9766
       RIVER LEAKAGE =        3994.5852         RIVER LEAKAGE =        2525.9800

            TOTAL IN =        4375.9805              TOTAL IN =        2680.9565

          OUT:                                     OUT:
          ----                                     ----
             STORAGE =        4168.7305               STORAGE =        2680.9622
       CONSTANT HEAD =           0.0000         CONSTANT HEAD =           0.0000
       RIVER LEAKAGE =         207.2539         RIVER LEAKAGE =           0.0000

           TOTAL OUT =        4375.9844             TOTAL OUT =        2680.9622

            IN - OUT =      -3.9062E-03              IN - OUT =      -5.6152E-03

 PERCENT DISCREPANCY =          -0.00     PERCENT DISCREPANCY =          -0.00






         TIME SUMMARY AT END OF TIME STEP    2 IN STRESS PERIOD    2
                    SECONDS     MINUTES      HOURS       DAYS        YEARS
                    -----------------------------------------------------------
   TIME STEP LENGTH  43200.      720.00      12.000     0.50000     1.36893E-03
 STRESS PERIOD TIME  86400.      1440.0      24.000      1.0000     2.73785E-03
         TOTAL TIME 1.72800E+05  2880.0      48.000      2.0000     5.47570E-03
1
 
 SOLVING FOR HEAD 

 OUTPUT CONTROL FOR STRESS PERIOD    2   TIME STEP    3
    SAVE HEAD FOR ALL LAYERS
    SAVE DRAWDOWN FOR ALL LAYERS
    SAVE BUDGET
    PRINT HEAD FOR ALL LAYERS
    PRINT BUDGET
 UBDSV1 SAVING "         STORAGE" ON UNIT  53 AT TIME STEP  3, STRESS PERIOD   2
 UBDSV2 SAVING "   CONSTANT HEAD" ON UNIT  53 AT TIME STEP  3, STRESS PERIOD   2
 UBDSV1 SAVING "FLOW RIGHT FACE " ON UNIT  53 AT TIME STEP  3, STRESS PERIOD   2
 UBDSV1 SAVING "FLOW FRONT FACE " ON UNIT  53 AT TIME STEP  3, STRESS PERIOD   2
1
              HEAD IN LAYER   1 AT END OF TIME STEP   3 IN STRESS PERIOD    2
  ---------------------------------------------------------------------------

            1           2           3           4           5           6           7           8           9          10
           11          12          13          14          15          16          17          18          19          20
           21          22          23          24          25
 ........................................................................................................................
   1    2.000       1.963       1.933       1.920       1.935       1.990       2.103       2.293       2.583       2.993    
        3.535       4.202       4.953       4.202       3.535       2.993       2.583       2.293       2.103       1.990    
        1.935       1.920       1.933       1.963       2.000    
   2    2.000       1.963       1.933       1.920       1.935       1.990       2.103       2.293       2.583       2.993    
        3.535       4.202       4.953       4.202       3.535       2.993       2.583       2.293       2.103       1.990    
        1.935       1.920       1.933       1.963       2.000    
   3    2.000       1.963       1.933       1.920       1.935       1.990       2.103       2.293       2.583       2.993    
        3.535       4.202       4.953       4.202       3.535       2.993       2.583       2.293       2.103       1.990    
        1.935       1.920       1.933       1.963       2.000    
   4    2.000       1.963       1.933       1.920       1.935       1.990       2.103       2.293       2.583       2.993    
        3.535       4.202       4.953       4.202       3.535       2.993       2.583       2.293       2.103       1.990    
        1.935       1.920       1.933       1.963       2.000    
   5    2.000       1.963       1.933       1.920       1.935       1.990       2.103       2.293       2.583       2.993    
        3.535       4.202       4.953       4.202       3.535       2.993       2.583       2.293       2.103       1.990    
        1.935       1.920       1.933       1.963       2.000    
   6    2.000       1.963       1.933       1.920       1.935       1.990       2.103       2.293       2.583       2.993    
        3.535       4.202       4.953       4.202       3.535       2.993       2.583       2.293       2.103       1.990    
        1.935       1.920       1.933       1.963       2.000    
   7    2.000       1.963       1.933       1.920       1.935       1.990       2.103       2.293       2.583       2.993    
        3.535       4.202       4.953       4.202       3.535       2.993       2.583       2.293       2.103       1.990    
        1.935       1.920       1.933       1.963       2.000    
   8    2.000       1.963       1.933       1.920       1.935       1.990       2.103       2.293       2.583       2.993    
        3.535       4.202       4.953       4.202       3.535       2.993       2.583       2.293       2.103       1.990    
        1.935       1.920       1.933       1.963       2.000    
   9    2.000       1.963       1.933       1.920       1.935       1.990       2.103       2.293       2.583       2.993    
        3.535       4.202       4.953       4.202       3.535       2.993       2.583       2.293       2.103       1.990    
        1.935       1.920       1.933       1.963       2.000    
  10    2.000       1.963       1.933       1.920       1.935       1.990       2.103       2.293       2.583       2.993    
        3.535       4.202       4.953       4.202       3.535       2.993       2.583       2.293       2.103       1.990    
        1.935       1.920       1.933       1.963       2.000    
  11    2.000       1.963       1.933       1.920       1.935       1.990       2.103       2.293       2.583       2.993    
        3.535       4.202       4.953       4.202       3.535       2.993       2.583       2.293       2.103       1.990    
        1.935       1.920       1.933       1.963       2.000    
  12    2.000       1.963       1.933       1.920       1.935       1.990       2.103       2.293       2.583       2.993    
        3.535       4.202       4.953       4.202       3.535       2.993       2.583       2.293       2.103       1.990    
        1.935       1.920       1.933       1.963       2.000    
  13    2.000       1.963       1.933       1.920       1.935       1.990       2.103       2.293       2.583       2.993    
        3.535       4.202       4.953       4.202       3.535       2.993       2.583       2.293       2.103       1.990    
        1.935       1.920       1.933       1.963       2.000    
  14    2.000       1.963       1.933       1.920       1.935       1.990       2.103       2.293       2.583       2.993    
        3.535       4.202       4.953       4.202       3.535       2.993       2.583       2.293       2.103       1.990    
        1.935       1.920       1.933       1.963       2.000    
  15    2.000       1.963       1.933       1.920       1.935       1.990       2.103       2.293       2.583       2.993    
        3.535       4.202       4.953       4.202       3.535       2.993       2.583       2.293       2.103       1.990    
        1.935       1.920       1.933       1.963       2.000    
  16    2.000       1.963       1.933       1.920       1.935       1.990       2.103       2.293       2.583       2.993    
        3.535       4.202       4.953       4.202       3.535       2.993       2.583       2.293       2.103       1.990    
        1.935       1.920       1.933       1.963       2.000    
  17    2.000       1.963       1.933       1.920       1.935       1.990       2.103       2.293       2.583       2.993    
        3.535       4.202       4.953       4.202       3.535       2.993       2.583       2.293       2.103       1.990    
        1.935       1.920       1.933       1.963       2.000    
  18    2.000       1.963       1.933       1.920       1.935       1.990       2.103       2.293       2.583       2.993    
        3.535       4.202       4.953       4.202       3.535       2.993       2.583       2.293       2.103       1.990    
        1.935       1.920       1.933       1.963       2.000    
  19    2.000       1.963       1.933       1.920       1.935       1.990       2.103       2.293       2.583       2.993    
        3.535       4.202       4.953       4.202       3.535       2.993       2.583       2.293       2.103       1.990    
        1.935       1.920       1.933       1.963       2.000    
  20    2.000       1.963       1.933       1.920       1.935       1.990       2.103       2.293       2.583       2.993    
        3.535       4.202       4.953       4.202       3.535       2.993       2.583       2.293       2.103       1.990    
        1.935       1.920       1.933       1.963       2.000    
  21    2.000       1.963       1.933       1.920       1.935       1.990       2.103       2.293       2.583       2.993    
        3.535       4.202       4.953       4.202       3.535       2.993       2.583       2.293       2.103       1.990    
        1.935       1.920       1.933       1.963       2.000    
  22    2.000       1.963       1.933       1.920       1.935       1.990       2.103       2.293       2.583       2.993    
        3.535       4.202       4.953       4.202       3.535       2.993       2.583       2.293       2.103       1.990    
        1.935       1.920       1.933       1.963       2.000    
  23    2.000       1.963       1.933       1.920       1.935       1.990       2.103       2.293       2.583       2.993    
        3.535       4.202       4.953       4.202       3.535       2.993       2.583       2.293       2.103       1.990    
        1.935       1.920       1.933       1.963       2.000    
  24    2.000       1.963       1.933       1.920       1.935       1.990       2.103       2.293       2.583       2.993    
        3.535       4.202       4.953       4.202       3.535       2.993       2.583       2.293       2.103       1.990    
        1.935       1.920       1.933       1.963       2.000    
  25    2.000       1.963       1.933       1.920       1.935       1.990       2.103       2.293       2.583       2.993    
        3.535       4.202       4.953       4.202       3.535       2.993       2.583       2.293       2.103       1.990    
        1.935       1.920       1.933       1.963       2.000    

 HEAD WILL BE SAVED ON UNIT   51 AT END OF TIME STEP    3, STRESS PERIOD    2

 DRAWDOWN WILL BE SAVED ON UNIT   52 AT END OF TIME STEP    3, STRESS PERIOD    2
1
  VOLUMETRIC BUDGET FOR ENTIRE MODEL AT END OF TIME STEP    3, STRESS PERIOD   2
  ------------------------------------------------------------------------------

     CUMULATIVE VOLUMES      L**3       RATES FOR THIS TIME STEP      L**3/T
     ------------------                 ------------------------

           IN:                                      IN:
           ---                                      ---
             STORAGE =           0.0000               STORAGE =           0.0000
       CONSTANT HEAD =         428.1603         CONSTANT HEAD =          93.5305
       RIVER LEAKAGE =        4936.7124         RIVER LEAKAGE =        1884.2545

            TOTAL IN =        5364.8726              TOTAL IN =        1977.7850

          OUT:                                     OUT:
          ----                                     ----
             STORAGE =        5157.6245               STORAGE =        1977.7882
       CONSTANT HEAD =           0.0000         CONSTANT HEAD =           0.0000
       RIVER LEAKAGE =         207.2539         RIVER LEAKAGE =           0.0000

           TOTAL OUT =        5364.8784             TOTAL OUT =        1977.7882

            IN - OUT =      -5.8594E-03              IN - OUT =      -3.1738E-03

 PERCENT DISCREPANCY =          -0.00     PERCENT DISCREPANCY =          -0.00






         TIME SUMMARY AT END OF TIME STEP    3 IN STRESS PERIOD    2
                    SECONDS     MINUTES      HOURS       DAYS        YEARS
                    -----------------------------------------------------------
   TIME STEP LENGTH  43200.      720.00      12.000     0.50000     1.36893E-03
 STRESS PERIOD TIME 1.29600E+05  2160.0      36.000      1.5000     4.10678E-03
         TOTAL TIME 2.16000E+05  3600.0      60.000      2.5000     6.84463E-03
1
 
 SOLVING FOR HEAD 

 OUTPUT CONTROL FOR STRESS PERIOD    2   TIME STEP    4
    SAVE HEAD FOR ALL LAYERS
    SAVE DRAWDOWN FOR ALL LAYERS
    SAVE BUDGET
    PRINT HEAD FOR ALL LAYERS
    PRINT BUDGET
 UBDSV1 SAVING "         STORAGE" ON UNIT  53 AT TIME STEP  4, STRESS PERIOD   2
 UBDSV2 SAVING "   CONSTANT HEAD" ON UNIT  53 AT TIME STEP  4, STRESS PERIOD   2
 UBDSV1 SAVING "FLOW RIGHT FACE " ON UNIT  53 AT TIME STEP  4, STRESS PERIOD   2
 UBDSV1 SAVING "FLOW FRONT FACE " ON UNIT  53 AT TIME STEP  4, STRESS PERIOD   2
1
              HEAD IN LAYER   1 AT END OF TIME STEP   4 IN STRESS PERIOD    2
  ---------------------------------------------------------------------------

            1           2           3           4           5           6           7           8           9          10
           11          12          13          14          15          16          17          18          19          20
           21          22          23          24          25
 ........................................................................................................................
   1    2.000       1.993       1.996       2.019       2.073       2.172       2.328       2.557       2.871       3.276    
        3.772       4.344       4.961       4.344       3.772       3.276       2.871       2.557       2.328       2.172    
        2.073       2.019       1.996       1.993       2.000    
   2    2.000       1.993       1.996       2.019       2.073       2.172       2.328       2.557       2.871       3.276    
        3.772       4.344       4.961       4.344       3.772       3.276       2.871       2.557       2.328       2.172    
        2.073       2.019       1.996       1.993       2.000    
   3    2.000       1.993       1.996       2.019       2.073       2.172       2.328       2.557       2.871       3.276    
        3.772       4.344       4.961       4.344       3.772       3.276       2.871       2.557       2.328       2.172    
        2.073       2.019       1.996       1.993       2.000    
   4    2.000       1.993       1.996       2.019       2.073       2.172       2.328       2.557       2.871       3.276    
        3.772       4.344       4.961       4.344       3.772       3.276       2.871       2.557       2.328       2.172    
        2.073       2.019       1.996       1.993       2.000    
   5    2.000       1.993       1.996       2.019       2.073       2.172       2.328       2.557       2.871       3.276    
        3.772       4.344       4.961       4.344       3.772       3.276       2.871       2.557       2.328       2.172    
        2.073       2.019       1.996       1.993       2.000    
   6    2.000       1.993       1.996       2.019       2.073       2.172       2.328       2.557       2.871       3.276    
        3.772       4.344       4.961       4.344       3.772       3.276       2.871       2.557       2.328       2.172    
        2.073       2.019       1.996       1.993       2.000    
   7    2.000       1.993       1.996       2.019       2.073       2.172       2.328       2.557       2.871       3.276    
        3.772       4.344       4.961       4.344       3.772       3.276       2.871       2.557       2.328       2.172    
        2.073       2.019       1.996       1.993       2.000    
   8    2.000       1.993       1.996       2.019       2.073       2.172       2.328       2.557       2.871       3.276    
        3.772       4.344       4.961       4.344       3.772       3.276       2.871       2.557       2.328       2.172    
        2.073       2.019       1.996       1.993       2.000    
   9    2.000       1.993       1.996       2.019       2.073       2.172       2.328       2.557       2.871       3.276    
        3.772       4.344       4.961       4.344       3.772       3.276       2.871       2.557       2.328       2.172    
        2.073       2.019       1.996       1.993       2.000    
  10    2.000       1.993       1.996       2.019       2.073       2.172       2.328       2.557       2.871       3.276    
        3.772       4.344       4.961       4.344       3.772       3.276       2.871       2.557       2.328       2.172    
        2.073       2.019       1.996       1.993       2.000    
  11    2.000       1.993       1.996       2.019       2.073       2.172       2.328       2.557       2.871       3.276    
        3.772       4.344       4.961       4.344       3.772       3.276       2.871       2.557       2.328       2.172    
        2.073       2.019       1.996       1.993       2.000    
  12    2.000       1.993       1.996       2.019       2.073       2.172       2.328       2.557       2.871       3.276    
        3.772       4.344       4.961       4.344       3.772       3.276       2.871       2.557       2.328       2.172    
        2.073       2.019       1.996       1.993       2.000    
  13    2.000       1.993       1.996       2.019       2.073       2.172       2.328       2.557       2.871       3.276    
        3.772       4.344       4.961       4.344       3.772       3.276       2.871       2.557       2.328       2.172    
        2.073       2.019       1.996       1.993       2.000    
  14    2.000       1.993       1.996       2.019       2.073       2.172       2.328       2.557       2.871       3.276    
        3.772       4.344       4.961       4.344       3.772       3.276       2.871       2.557       2.328       2.172    
        2.073       2.019       1.996       1.993       2.000    
  15    2.000       1.993       1.996       2.019       2.073       2.172       2.328       2.557       2.871       3.276    
        3.772       4.344       4.961       4.344       3.772       3.276       2.871       2.557       2.328       2.172    
        2.073       2.019       1.996       1.993       2.000    
  16    2.000       1.993       1.996       2.019       2.073       2.172       2.328       2.557       2.871       3.276    
        3.772       4.344       4.961       4.344       3.772       3.276       2.871       2.557       2.328       2.172    
        2.073       2.019       1.996       1.993       2.000    
  17    2.000       1.993       1.996       2.019       2.073       2.172       2.328       2.557       2.871       3.276    
        3.772       4.344       4.961       4.344       3.772       3.276       2.871       2.557       2.328       2.172    
        2.073       2.019       1.996       1.993       2.000    
  18    2.000       1.993       1.996       2.019       2.073       2.172       2.328       2.557       2.871       3.276    
        3.772       4.344       4.961       4.344       3.772       3.276       2.871       2.557       2.328       2.172    
        2.073       2.019       1.996       1.993       2.000    
  19    2.000       1.993       1.996       2.019       2.073       2.172       2.328       2.557       2.871       3.276    
        3.772       4.344       4.961       4.344       3.772       3.276       2.871       2.557       2.328       2.172    
        2.073       2.019       1.996       1.993       2.000    
  20    2.000       1.993       1.996       2.019       2.073       2.172       2.328       2.557       2.871       3.276    
        3.772       4.344       4.961       4.344       3.772       3.276       2.871       2.557       2.328       2.172    
        2.073       2.019       1.996       1.993       2.000    
  21    2.000       1.993       1.996       2.019       2.073       2.172       2.328       2.557       2.871       3.276    
        3.772       4.344       4.961       4.344       3.772       3.276       2.871       2.557       2.328       2.172    
        2.073       2.019       1.996       1.993       2.000    
  22    2.000       1.993       1.996       2.019       2.073       2.172       2.328       2.557       2.871       3.276    
        3.772       4.344       4.961       4.344       3.772       3.276       2.871       2.557       2.328       2.172    
        2.073       2.019       1.996       1.993       2.000    
  23    2.000       1.993       1.996       2.019       2.073       2.172       2.328       2.557       2.871       3.276    
        3.772       4.344       4.961       4.344       3.772       3.276       2.871       2.557       2.328       2.172    
        2.073       2.019       1.996       1.993       2.000    
  24    2.000       1.993       1.996       2.019       2.073       2.172       2.328       2.557       2.871       3.276    
        3.772       4.344       4.961       4.344       3.772       3.276       2.871       2.557       2.328       2.172    
        2.073       2.019       1.996       1.993       2.000    
  25    2.000       1.993       1.996       2.019       2.073       2.172       2.328       2.557       2.871       3.276    
        3.772       4.344       4.961       4.344       3.772       3.276       2.871       2.557       2.328       2.172    
        2.073       2.019       1.996       1.993       2.000    

 HEAD WILL BE SAVED ON UNIT   51 AT END OF TIME STEP    4, STRESS PERIOD    2

 DRAWDOWN WILL BE SAVED ON UNIT   52 AT END OF TIME STEP    4, STRESS PERIOD    2
1
  VOLUMETRIC BUDGET FOR ENTIRE MODEL AT END OF TIME STEP    4, STRESS PERIOD   2
  ------------------------------------------------------------------------------

     CUMULATIVE VOLUMES      L**3       RATES FOR THIS TIME STEP      L**3/T
     ------------------                 ------------------------

           IN:                                      IN:
           ---                                      ---
             STORAGE =           0.0000               STORAGE =           0.0000
       CONSTANT HEAD =         436.8832         CONSTANT HEAD =          17.4457
       RIVER LEAKAGE =        5710.1479         RIVER LEAKAGE =        1546.8715

            TOTAL IN =        6147.0312              TOTAL IN =        1564.3171

          OUT:                                     OUT:
          ----                                     ----
             STORAGE =        5939.7803               STORAGE =        1564.3112
       CONSTANT HEAD =           0.0000         CONSTANT HEAD =           0.0000
       RIVER LEAKAGE =         207.2539         RIVER LEAKAGE =           0.0000

           TOTAL OUT =        6147.0342             TOTAL OUT =        1564.3112

            IN - OUT =      -2.9297E-03              IN - OUT =       5.9814E-03

 PERCENT DISCREPANCY =          -0.00     PERCENT DISCREPANCY =           0.00






         TIME SUMMARY AT END OF TIME STEP    4 IN STRESS PERIOD    2
                    SECONDS     MINUTES      HOURS       DAYS        YEARS
                    -----------------------------------------------------------
   TIME STEP LENGTH  43200.      720.00      12.000     0.50000     1.36893E-03
 STRESS PERIOD TIME 1.72800E+05  2880.0      48.000      2.0000     5.47570E-03
         TOTAL TIME 2.59200E+05  4320.0      72.000      3.0000     8.21355E-03
1
 
 SOLVING FOR HEAD 

 OUTPUT CONTROL FOR STRESS PERIOD    2   TIME STEP    5
    SAVE HEAD FOR ALL LAYERS
    SAVE DRAWDOWN FOR ALL LAYERS
    SAVE BUDGET
    PRINT HEAD FOR ALL LAYERS
    PRINT BUDGET
 UBDSV1 SAVING "         STORAGE" ON UNIT  53 AT TIME STEP  5, STRESS PERIOD   2
 UBDSV2 SAVING "   CONSTANT HEAD" ON UNIT  53 AT TIME STEP  5, STRESS PERIOD   2
 UBDSV1 SAVING "FLOW RIGHT FACE " ON UNIT  53 AT TIME STEP  5, STRESS PERIOD   2
 UBDSV1 SAVING "FLOW FRONT FACE " ON UNIT  53 AT TIME STEP  5, STRESS PERIOD   2
1
              HEAD IN LAYER   1 AT END OF TIME STEP   5 IN STRESS PERIOD    2
  ---------------------------------------------------------------------------

            1           2           3           4           5           6           7           8           9          10
           11          12          13          14          15          16          17          18          19          20
           21          22          23          24          25
 ........................................................................................................................
   1    2.000       2.026       2.061       2.118       2.207       2.339       2.525       2.773       3.090       3.478    
        3.931       4.434       4.967       4.434       3.931       3.478       3.090       2.773       2.525       2.339    
        2.207       2.118       2.061       2.026       2.000    
   2    2.000       2.026       2.061       2.118       2.207       2.339       2.525       2.773       3.090       3.478    
        3.931       4.434       4.967       4.434       3.931       3.478       3.090       2.773       2.525       2.339    
        2.207       2.118       2.061       2.026       2.000    
   3    2.000       2.026       2.061       2.118       2.207       2.339       2.525       2.773       3.090       3.478    
        3.931       4.434       4.967       4.434       3.931       3.478       3.090       2.773       2.525       2.339    
        2.207       2.118       2.061       2.026       2.000    
   4    2.000       2.026       2.061       2.118       2.207       2.339       2.525       2.773       3.090       3.478    
        3.931       4.434       4.967       4.434       3.931       3.478       3.090       2.773       2.525       2.339    
        2.207       2.118       2.061       2.026       2.000    
   5    2.000       2.026       2.061       2.118       2.207       2.339       2.525       2.773       3.090       3.478    
        3.931       4.434       4.967       4.434       3.931       3.478       3.090       2.773       2.525       2.339    
        2.207       2.118       2.061       2.026       2.000    
   6    2.000       2.026       2.061       2.118       2.207       2.339       2.525       2.773       3.090       3.478    
        3.931       4.434       4.967       4.434       3.931       3.478       3.090       2.773       2.525       2.339    
        2.207       2.118       2.061       2.026       2.000    
   7    2.000       2.026       2.061       2.118       2.207       2.339       2.525       2.773       3.090       3.478    
        3.931       4.434       4.967       4.434       3.931       3.478       3.090       2.773       2.525       2.339    
        2.207       2.118       2.061       2.026       2.000    
   8    2.000       2.026       2.061       2.118       2.207       2.339       2.525       2.773       3.090       3.478    
        3.931       4.434       4.967       4.434       3.931       3.478       3.090       2.773       2.525       2.339    
        2.207       2.118       2.061       2.026       2.000    
   9    2.000       2.026       2.061       2.118       2.207       2.339       2.525       2.773       3.090       3.478    
        3.931       4.434       4.967       4.434       3.931       3.478       3.090       2.773       2.525       2.339    
        2.207       2.118       2.061       2.026       2.000    
  10    2.000       2.026       2.061       2.118       2.207       2.339       2.525       2.773       3.090       3.478    
        3.931       4.434       4.967       4.434       3.931       3.478       3.090       2.773       2.525       2.339    
        2.207       2.118       2.061       2.026       2.000    
  11    2.000       2.026       2.061       2.118       2.207       2.339       2.525       2.773       3.090       3.478    
        3.931       4.434       4.967       4.434       3.931       3.478       3.090       2.773       2.525       2.339    
        2.207       2.118       2.061       2.026       2.000    
  12    2.000       2.026       2.061       2.118       2.207       2.339       2.525       2.773       3.090       3.478    
        3.931       4.434       4.967       4.434       3.931       3.478       3.090       2.773       2.525       2.339    
        2.207       2.118       2.061       2.026       2.000    
  13    2.000       2.026       2.061       2.118       2.207       2.339       2.525       2.773       3.090       3.478    
        3.931       4.434       4.967       4.434       3.931       3.478       3.090       2.773       2.525       2.339    
        2.207       2.118       2.061       2.026       2.000    
  14    2.000       2.026       2.061       2.118       2.207       2.339       2.525       2.773       3.090       3.478    
        3.931       4.434       4.967       4.434       3.931       3.478       3.090       2.773       2.525       2.339    
        2.207       2.118       2.061       2.026       2.000    
  15    2.000       2.026       2.061       2.118       2.207       2.339       2.525       2.773       3.090       3.478    
        3.931       4.434       4.967       4.434       3.931       3.478       3.090       2.773       2.525       2.339    
        2.207       2.118       2.061       2.026       2.000    
  16    2.000       2.026       2.061       2.118       2.207       2.339       2.525       2.773       3.090       3.478    
        3.931       4.434       4.967       4.434       3.931       3.478       3.090       2.773       2.525       2.339    
        2.207       2.118       2.061       2.026       2.000    
  17    2.000       2.026       2.061       2.118       2.207       2.339       2.525       2.773       3.090       3.478    
        3.931       4.434       4.967       4.434       3.931       3.478       3.090       2.773       2.525       2.339    
        2.207       2.118       2.061       2.026       2.000    
  18    2.000       2.026       2.061       2.118       2.207       2.339       2.525       2.773       3.090       3.478    
        3.931       4.434       4.967       4.434       3.931       3.478       3.090       2.773       2.525       2.339    
        2.207       2.118       2.061       2.026       2.000    
  19    2.000       2.026       2.061       2.118       2.207       2.339       2.525       2.773       3.090       3.478    
        3.931       4.434       4.967       4.434       3.931       3.478       3.090       2.773       2.525       2.339    
        2.207       2.118       2.061       2.026       2.000    
  20    2.000       2.026       2.061       2.118       2.207       2.339       2.525       2.773       3.090       3.478    
        3.931       4.434       4.967       4.434       3.931       3.478       3.090       2.773       2.525       2.339    
        2.207       2.118       2.061       2.026       2.000    
  21    2.000       2.026       2.061       2.118       2.207       2.339       2.525       2.773       3.090       3.478    
        3.931       4.434       4.967       4.434       3.931       3.478       3.090       2.773       2.525       2.339    
        2.207       2.118       2.061       2.026       2.000    
  22    2.000       2.026       2.061       2.118       2.207       2.339       2.525       2.773       3.090       3.478    
        3.931       4.434       4.967       4.434       3.931       3.478       3.090       2.773       2.525       2.339    
        2.207       2.118       2.061       2.026       2.000    
  23    2.000       2.026       2.061       2.118       2.207       2.339       2.525       2.773       3.090       3.478    
        3.931       4.434       4.967       4.434       3.931       3.478       3.090       2.773       2.525       2.339    
        2.207       2.118       2.061       2.026       2.000    
  24    2.000       2.026       2.061       2.118       2.207       2.339       2.525       2.773       3.090       3.478    
        3.931       4.434       4.967       4.434       3.931       3.478       3.090       2.773       2.525       2.339    
        2.207       2.118       2.061       2.026       2.000    
  25    2.000       2.026       2.061       2.118       2.207       2.339       2.525       2.773       3.090       3.478    
        3.931       4.434       4.967       4.434       3.931       3.478       3.090       2.773       2.525       2.339    
        2.207       2.118       2.061       2.026       2.000    

 HEAD WILL BE SAVED ON UNIT   51 AT END OF TIME STEP    5, STRESS PERIOD    2

 DRAWDOWN WILL BE SAVED ON UNIT   52 AT END OF TIME STEP    5, STRESS PERIOD    2
1
  VOLUMETRIC BUDGET FOR ENTIRE MODEL AT END OF TIME STEP    5, STRESS PERIOD   2
  ------------------------------------------------------------------------------

     CUMULATIVE VOLUMES      L**3       RATES FOR THIS TIME STEP      L**3/T
     ------------------                 ------------------------

           IN:                                      IN:
           ---                                      ---
             STORAGE =           0.0000               STORAGE =           0.0000
       CONSTANT HEAD =         436.8832         CONSTANT HEAD =           0.0000
       RIVER LEAKAGE =        6376.6499         RIVER LEAKAGE =        1333.0039

            TOTAL IN =        6813.5332              TOTAL IN =        1333.0039

          OUT:                                     OUT:
          ----                                     ----
             STORAGE =        6574.3701               STORAGE =        1269.1794
       CONSTANT HEAD =          31.9130         CONSTANT HEAD =          63.8260
       RIVER LEAKAGE =         207.2539         RIVER LEAKAGE =           0.0000

           TOTAL OUT =        6813.5371             TOTAL OUT =        1333.0054

            IN - OUT =      -3.9062E-03              IN - OUT =      -1.4648E-03

 PERCENT DISCREPANCY =          -0.00     PERCENT DISCREPANCY =          -0.00






         TIME SUMMARY AT END OF TIME STEP    5 IN STRESS PERIOD    2
                    SECONDS     MINUTES      HOURS       DAYS        YEARS
                    -----------------------------------------------------------
   TIME STEP LENGTH  43200.      720.00      12.000     0.50000     1.36893E-03
 STRESS PERIOD TIME 2.16000E+05  3600.0      60.000      2.5000     6.84463E-03
         TOTAL TIME 3.02400E+05  5040.0      84.000      3.5000     9.58248E-03
1
 
 SOLVING FOR HEAD 

 OUTPUT CONTROL FOR STRESS PERIOD    2   TIME STEP    6
    SAVE HEAD FOR ALL LAYERS
    SAVE DRAWDOWN FOR ALL LAYERS
    SAVE BUDGET
    PRINT HEAD FOR ALL LAYERS
    PRINT BUDGET
 UBDSV1 SAVING "         STORAGE" ON UNIT  53 AT TIME STEP  6, STRESS PERIOD   2
 UBDSV2 SAVING "   CONSTANT HEAD" ON UNIT  53 AT TIME STEP  6, STRESS PERIOD   2
 UBDSV1 SAVING "FLOW RIGHT FACE " ON UNIT  53 AT TIME STEP  6, STRESS PERIOD   2
 UBDSV1 SAVING "FLOW FRONT FACE " ON UNIT  53 AT TIME STEP  6, STRESS PERIOD   2
1
              HEAD IN LAYER   1 AT END OF TIME STEP   6 IN STRESS PERIOD    2
  ---------------------------------------------------------------------------

            1           2           3           4           5           6           7           8           9          10
           11          12          13          14          15          16          17          18          19          20
           21          22          23          24          25
 ........................................................................................................................
   1    2.000       2.057       2.125       2.212       2.330       2.487       2.691       2.948       3.261       3.629    
        4.045       4.498       4.970       4.498       4.045       3.629       3.261       2.948       2.691       2.487    
        2.330       2.212       2.125       2.057       2.000    
   2    2.000       2.057       2.125       2.212       2.330       2.487       2.691       2.948       3.261       3.629    
        4.045       4.498       4.970       4.498       4.045       3.629       3.261       2.948       2.691       2.487    
        2.330       2.212       2.125       2.057       2.000    
   3    2.000       2.057       2.125       2.212       2.330       2.487       2.691       2.948       3.261       3.629    
        4.045       4.498       4.970       4.498       4.045       3.629       3.261       2.948       2.691       2.487    
        2.330       2.212       2.125       2.057       2.000    
   4    2.000       2.057       2.125       2.212       2.330       2.487       2.691       2.948       3.261       3.629    
        4.045       4.498       4.970       4.498       4.045       3.629       3.261       2.948       2.691       2.487    
        2.330       2.212       2.125       2.057       2.000    
   5    2.000       2.057       2.125       2.212       2.330       2.487       2.691       2.948       3.261       3.629    
        4.045       4.498       4.970       4.498       4.045       3.629       3.261       2.948       2.691       2.487    
        2.330       2.212       2.125       2.057       2.000    
   6    2.000       2.057       2.125       2.212       2.330       2.487       2.691       2.948       3.261       3.629    
        4.045       4.498       4.970       4.498       4.045       3.629       3.261       2.948       2.691       2.487    
        2.330       2.212       2.125       2.057       2.000    
   7    2.000       2.057       2.125       2.212       2.330       2.487       2.691       2.948       3.261       3.629    
        4.045       4.498       4.970       4.498       4.045       3.629       3.261       2.948       2.691       2.487    
        2.330       2.212       2.125       2.057       2.000    
   8    2.000       2.057       2.125       2.212       2.330       2.487       2.691       2.948       3.261       3.629    
        4.045       4.498       4.970       4.498       4.045       3.629       3.261       2.948       2.691       2.487    
        2.330       2.212       2.125       2.057       2.000    
   9    2.000       2.057       2.125       2.212       2.330       2.487       2.691       2.948       3.261       3.629    
        4.045       4.498       4.970       4.498       4.045       3.629       3.261       2.948       2.691       2.487    
        2.330       2.212       2.125       2.057       2.000    
  10    2.000       2.057       2.125       2.212       2.330       2.487       2.691       2.948       3.261       3.629    
        4.045       4.498       4.970       4.498       4.045       3.629       3.261       2.948       2.691       2.487    
        2.330       2.212       2.125       2.057       2.000    
  11    2.000       2.057       2.125       2.212       2.330       2.487       2.691       2.948       3.261       3.629    
        4.045       4.498       4.970       4.498       4.045       3.629       3.261       2.948       2.691       2.487    
        2.330       2.212       2.125       2.057       2.000    
  12    2.000       2.057       2.125       2.212       2.330       2.487       2.691       2.948       3.261       3.629    
        4.045       4.498       4.970       4.498       4.045       3.629       3.261       2.948       2.691       2.487    
        2.330       2.212       2.125       2.057       2.000    
  13    2.000       2.057       2.125       2.212       2.330       2.487       2.691       2.948       3.261       3.629    
        4.045       4.498       4.970       4.498       4.045       3.629       3.261       2.948       2.691       2.487    
        2.330       2.212       2.125       2.057       2.000    
  14    2.000       2.057       2.125       2.212       2.330       2.487       2.691       2.948       3.261       3.629    
        4.045       4.498       4.970       4.498       4.045       3.629       3.261       2.948       2.691       2.487    
        2.330       2.212       2.125       2.057       2.000    
  15    2.000       2.057       2.125       2.212       2.330       2.487       2.691       2.948       3.261       3.629    
        4.045       4.498       4.970       4.498       4.045       3.629       3.261       2.948       2.691       2.487    
        2.330       2.212       2.125       2.057       2.000    
  16    2.000       2.057       2.125       2.212       2.330       2.487       2.691       2.948       3.261       3.629    
        4.045       4.498       4.970       4.498       4.045       3.629       3.261       2.948       2.691       2.487    
        2.330       2.212       2.125       2.057       2.000    
  17    2.000       2.057       2.125       2.212       2.330       2.487       2.691       2.948       3.261       3.629    
        4.045       4.498       4.970       4.498       4.045       3.629       3.261       2.948       2.691       2.487    
        2.330       2.212       2.125       2.057       2.000    
  18    2.000       2.057       2.125       2.212       2.330       2.487       2.691       2.948       3.261       3.629    
        4.045       4.498       4.970       4.498       4.045       3.629       3.261       2.948       2.691       2.487    
        2.330       2.212       2.125       2.057       2.000    
  19    2.000       2.057       2.125       2.212       2.330       2.487       2.691       2.948       3.261       3.629    
        4.045       4.498       4.970       4.498       4.045       3.629       3.261       2.948       2.691       2.487    
        2.330       2.212       2.125       2.057       2.000    
  20    2.000       2.057       2.125       2.212       2.330       2.487       2.691       2.948       3.261       3.629    
        4.045       4.498       4.970       4.498       4.045       3.629       3.261       2.948       2.691       2.487    
        2.330       2.212       2.125       2.057       2.000    
  21    2.000       2.057       2.125       2.212       2.330       2.487       2.691       2.948       3.261       3.629    
        4.045       4.498       4.970       4.498       4.045       3.629       3.261       2.948       2.691       2.487    
        2.330       2.212       2.125       2.057       2.000    
  22    2.000       2.057       2.125       2.212       2.330       2.487       2.691       2.948       3.261       3.629    
        4.045       4.498       4.970       4.498       4.045       3.629       3.261       2.948       2.691       2.487    
        2.330       2.212       2.125       2.057       2.000    
  23    2.000       2.057       2.125       2.212       2.330       2.487       2.691       2.948       3.261       3.629    
        4.045       4.498       4.970       4.498       4.045       3.629       3.261       2.948       2.691       2.487    
        2.330       2.212       2.125       2.057       2.000    
  24    2.000       2.057       2.125       2.212       2.330       2.487       2.691       2.948       3.261       3.629    
        4.045       4.498       4.970       4.498       4.045       3.629       3.261       2.948       2.691       2.487    
        2.330       2.212       2.125       2.057       2.000    
  25    2.000       2.057       2.125       2.212       2.330       2.487       2.691       2.948       3.261       3.629    
        4.045       4.498       4.970       4.498       4.045       3.629       3.261       2.948       2.691       2.487    
        2.330       2.212       2.125       2.057       2.000    

 HEAD WILL BE SAVED ON UNIT   51 AT END OF TIME STEP    6, STRESS PERIOD    2

 DRAWDOWN WILL BE SAVED ON UNIT   52 AT END OF TIME STEP    6, STRESS PERIOD    2
1
  VOLUMETRIC BUDGET FOR ENTIRE MODEL AT END OF TIME STEP    6, STRESS PERIOD   2
  ------------------------------------------------------------------------------

     CUMULATIVE VOLUMES      L**3       RATES FOR THIS TIME STEP      L**3/T
     ------------------                 ------------------------

           IN:                                      IN:
           ---                                      ---
             STORAGE =           0.0000               STORAGE =           0.0000
       CONSTANT HEAD =         436.8832         CONSTANT HEAD =           0.0000
       RIVER LEAKAGE =        6968.4077         RIVER LEAKAGE =        1183.5153

            TOTAL IN =        7405.2910              TOTAL IN =        1183.5153

          OUT:                                     OUT:
          ----                                     ----
             STORAGE =        7094.5742               STORAGE =        1040.4080
       CONSTANT HEAD =         103.4663         CONSTANT HEAD =         143.1066
       RIVER LEAKAGE =         207.2539         RIVER LEAKAGE =           0.0000

           TOTAL OUT =        7405.2944             TOTAL OUT =        1183.5145

            IN - OUT =      -3.4180E-03              IN - OUT =       7.3242E-04

 PERCENT DISCREPANCY =          -0.00     PERCENT DISCREPANCY =           0.00






         TIME SUMMARY AT END OF TIME STEP    6 IN STRESS PERIOD    2
                    SECONDS     MINUTES      HOURS       DAYS        YEARS
                    -----------------------------------------------------------
   TIME STEP LENGTH  43200.      720.00      12.000     0.50000     1.36893E-03
 STRESS PERIOD TIME 2.59200E+05  4320.0      72.000      3.0000     8.21355E-03
         TOTAL TIME 3.45600E+05  5760.0      96.000      4.0000     1.09514E-02
1
 
 SOLVING FOR HEAD 

 OUTPUT CONTROL FOR STRESS PERIOD    2   TIME STEP    7
    SAVE HEAD FOR ALL LAYERS
    SAVE DRAWDOWN FOR ALL LAYERS
    SAVE BUDGET
    PRINT HEAD FOR ALL LAYERS
    PRINT BUDGET
 UBDSV1 SAVING "         STORAGE" ON UNIT  53 AT TIME STEP  7, STRESS PERIOD   2
 UBDSV2 SAVING "   CONSTANT HEAD" ON UNIT  53 AT TIME STEP  7, STRESS PERIOD   2
 UBDSV1 SAVING "FLOW RIGHT FACE " ON UNIT  53 AT TIME STEP  7, STRESS PERIOD   2
 UBDSV1 SAVING "FLOW FRONT FACE " ON UNIT  53 AT TIME STEP  7, STRESS PERIOD   2
1
              HEAD IN LAYER   1 AT END OF TIME STEP   7 IN STRESS PERIOD    2
  ---------------------------------------------------------------------------

            1           2           3           4           5           6           7           8           9          10
           11          12          13          14          15          16          17          18          19          20
           21          22          23          24          25
 ........................................................................................................................
   1    2.000       2.086       2.182       2.296       2.438       2.613       2.829       3.090       3.396       3.745    
        4.131       4.545       4.973       4.545       4.131       3.745       3.396       3.090       2.829       2.613    
        2.438       2.296       2.182       2.086       2.000    
   2    2.000       2.086       2.182       2.296       2.438       2.613       2.829       3.090       3.396       3.745    
        4.131       4.545       4.973       4.545       4.131       3.745       3.396       3.090       2.829       2.613    
        2.438       2.296       2.182       2.086       2.000    
   3    2.000       2.086       2.182       2.296       2.438       2.613       2.829       3.090       3.396       3.745    
        4.131       4.545       4.973       4.545       4.131       3.745       3.396       3.090       2.829       2.613    
        2.438       2.296       2.182       2.086       2.000    
   4    2.000       2.086       2.182       2.296       2.438       2.613       2.829       3.090       3.396       3.745    
        4.131       4.545       4.973       4.545       4.131       3.745       3.396       3.090       2.829       2.613    
        2.438       2.296       2.182       2.086       2.000    
   5    2.000       2.086       2.182       2.296       2.438       2.613       2.829       3.090       3.396       3.745    
        4.131       4.545       4.973       4.545       4.131       3.745       3.396       3.090       2.829       2.613    
        2.438       2.296       2.182       2.086       2.000    
   6    2.000       2.086       2.182       2.296       2.438       2.613       2.829       3.090       3.396       3.745    
        4.131       4.545       4.973       4.545       4.131       3.745       3.396       3.090       2.829       2.613    
        2.438       2.296       2.182       2.086       2.000    
   7    2.000       2.086       2.182       2.296       2.438       2.613       2.829       3.090       3.396       3.745    
        4.131       4.545       4.973       4.545       4.131       3.745       3.396       3.090       2.829       2.613    
        2.438       2.296       2.182       2.086       2.000    
   8    2.000       2.086       2.182       2.296       2.438       2.613       2.829       3.090       3.396       3.745    
        4.131       4.545       4.973       4.545       4.131       3.745       3.396       3.090       2.829       2.613    
        2.438       2.296       2.182       2.086       2.000    
   9    2.000       2.086       2.182       2.296       2.438       2.613       2.829       3.090       3.396       3.745    
        4.131       4.545       4.973       4.545       4.131       3.745       3.396       3.090       2.829       2.613    
        2.438       2.296       2.182       2.086       2.000    
  10    2.000       2.086       2.182       2.296       2.438       2.613       2.829       3.090       3.396       3.745    
        4.131       4.545       4.973       4.545       4.131       3.745       3.396       3.090       2.829       2.613    
        2.438       2.296       2.182       2.086       2.000    
  11    2.000       2.086       2.182       2.296       2.438       2.613       2.829       3.090       3.396       3.745    
        4.131       4.545       4.973       4.545       4.131       3.745       3.396       3.090       2.829       2.613    
        2.438       2.296       2.182       2.086       2.000    
  12    2.000       2.086       2.182       2.296       2.438       2.613       2.829       3.090       3.396       3.745    
        4.131       4.545       4.973       4.545       4.131       3.745       3.396       3.090       2.829       2.613    
        2.438       2.296       2.182       2.086       2.000    
  13    2.000       2.086       2.182       2.296       2.438       2.613       2.829       3.090       3.396       3.745    
        4.131       4.545       4.973       4.545       4.131       3.745       3.396       3.090       2.829       2.613    
        2.438       2.296       2.182       2.086       2.000    
  14    2.000       2.086       2.182       2.296       2.438       2.613       2.829       3.090       3.396       3.745    
        4.131       4.545       4.973       4.545       4.131       3.745       3.396       3.090       2.829       2.613    
        2.438       2.296       2.182       2.086       2.000    
  15    2.000       2.086       2.182       2.296       2.438       2.613       2.829       3.090       3.396       3.745    
        4.131       4.545       4.973       4.545       4.131       3.745       3.396       3.090       2.829       2.613    
        2.438       2.296       2.182       2.086       2.000    
  16    2.000       2.086       2.182       2.296       2.438       2.613       2.829       3.090       3.396       3.745    
        4.131       4.545       4.973       4.545       4.131       3.745       3.396       3.090       2.829       2.613    
        2.438       2.296       2.182       2.086       2.000    
  17    2.000       2.086       2.182       2.296       2.438       2.613       2.829       3.090       3.396       3.745    
        4.131       4.545       4.973       4.545       4.131       3.745       3.396       3.090       2.829       2.613    
        2.438       2.296       2.182       2.086       2.000    
  18    2.000       2.086       2.182       2.296       2.438       2.613       2.829       3.090       3.396       3.745    
        4.131       4.545       4.973       4.545       4.131       3.745       3.396       3.090       2.829       2.613    
        2.438       2.296       2.182       2.086       2.000    
  19    2.000       2.086       2.182       2.296       2.438       2.613       2.829       3.090       3.396       3.745    
        4.131       4.545       4.973       4.545       4.131       3.745       3.396       3.090       2.829       2.613    
        2.438       2.296       2.182       2.086       2.000    
  20    2.000       2.086       2.182       2.296       2.438       2.613       2.829       3.090       3.396       3.745    
        4.131       4.545       4.973       4.545       4.131       3.745       3.396       3.090       2.829       2.613    
        2.438       2.296       2.182       2.086       2.000    
  21    2.000       2.086       2.182       2.296       2.438       2.613       2.829       3.090       3.396       3.745    
        4.131       4.545       4.973       4.545       4.131       3.745       3.396       3.090       2.829       2.613    
        2.438       2.296       2.182       2.086       2.000    
  22    2.000       2.086       2.182       2.296       2.438       2.613       2.829       3.090       3.396       3.745    
        4.131       4.545       4.973       4.545       4.131       3.745       3.396       3.090       2.829       2.613    
        2.438       2.296       2.182       2.086       2.000    
  23    2.000       2.086       2.182       2.296       2.438       2.613       2.829       3.090       3.396       3.745    
        4.131       4.545       4.973       4.545       4.131       3.745       3.396       3.090       2.829       2.613    
        2.438       2.296       2.182       2.086       2.000    
  24    2.000       2.086       2.182       2.296       2.438       2.613       2.829       3.090       3.396       3.745    
        4.131       4.545       4.973       4.545       4.131       3.745       3.396       3.090       2.829       2.613    
        2.438       2.296       2.182       2.086       2.000    
  25    2.000       2.086       2.182       2.296       2.438       2.613       2.829       3.090       3.396       3.745    
        4.131       4.545       4.973       4.545       4.131       3.745       3.396       3.090       2.829       2.613    
        2.438       2.296       2.182       2.086       2.000    

 HEAD WILL BE SAVED ON UNIT   51 AT END OF TIME STEP    7, STRESS PERIOD    2

 DRAWDOWN WILL BE SAVED ON UNIT   52 AT END OF TIME STEP    7, STRESS PERIOD    2
1
  VOLUMETRIC BUDGET FOR ENTIRE MODEL AT END OF TIME STEP    7, STRESS PERIOD   2
  ------------------------------------------------------------------------------

     CUMULATIVE VOLUMES      L**3       RATES FOR THIS TIME STEP      L**3/T
     ------------------                 ------------------------

           IN:                                      IN:
           ---                                      ---
             STORAGE =           0.0000               STORAGE =           0.0000
       CONSTANT HEAD =         436.8832         CONSTANT HEAD =           0.0000
       RIVER LEAKAGE =        7504.7402         RIVER LEAKAGE =        1072.6646

            TOTAL IN =        7941.6235              TOTAL IN =        1072.6646

          OUT:                                     OUT:
          ----                                     ----
             STORAGE =        7522.8481               STORAGE =         856.5481
       CONSTANT HEAD =         211.5210         CONSTANT HEAD =         216.1095
       RIVER LEAKAGE =         207.2539         RIVER LEAKAGE =           0.0000

           TOTAL OUT =        7941.6230             TOTAL OUT =        1072.6576

            IN - OUT =       4.8828E-04              IN - OUT =       6.9580E-03

 PERCENT DISCREPANCY =           0.00     PERCENT DISCREPANCY =           0.00






         TIME SUMMARY AT END OF TIME STEP    7 IN STRESS PERIOD    2
                    SECONDS     MINUTES      HOURS       DAYS        YEARS
                    -----------------------------------------------------------
   TIME STEP LENGTH  43200.      720.00      12.000     0.50000     1.36893E-03
 STRESS PERIOD TIME 3.02400E+05  5040.0      84.000      3.5000     9.58248E-03
         TOTAL TIME 3.88800E+05  6480.0      108.00      4.5000     1.23203E-02
1
 
 SOLVING FOR HEAD 

 OUTPUT CONTROL FOR STRESS PERIOD    2   TIME STEP    8
    SAVE HEAD FOR ALL LAYERS
    SAVE DRAWDOWN FOR ALL LAYERS
    SAVE BUDGET
    PRINT HEAD FOR ALL LAYERS
    PRINT BUDGET
 UBDSV1 SAVING "         STORAGE" ON UNIT  53 AT TIME STEP  8, STRESS PERIOD   2
 UBDSV2 SAVING "   CONSTANT HEAD" ON UNIT  53 AT TIME STEP  8, STRESS PERIOD   2
 UBDSV1 SAVING "FLOW RIGHT FACE " ON UNIT  53 AT TIME STEP  8, STRESS PERIOD   2
 UBDSV1 SAVING "FLOW FRONT FACE " ON UNIT  53 AT TIME STEP  8, STRESS PERIOD   2
1
              HEAD IN LAYER   1 AT END OF TIME STEP   8 IN STRESS PERIOD    2
  ---------------------------------------------------------------------------

            1           2           3           4           5           6           7           8           9          10
           11          12          13          14          15          16          17          18          19          20
           21          22          23          24          25
 ........................................................................................................................
   1    2.000       2.112       2.233       2.370       2.530       2.720       2.944       3.206       3.504       3.836    
        4.198       4.581       4.975       4.581       4.198       3.836       3.504       3.206       2.944       2.720    
        2.530       2.370       2.233       2.112       2.000    
   2    2.000       2.112       2.233       2.370       2.530       2.720       2.944       3.206       3.504       3.836    
        4.198       4.581       4.975       4.581       4.198       3.836       3.504       3.206       2.944       2.720    
        2.530       2.370       2.233       2.112       2.000    
   3    2.000       2.112       2.233       2.370       2.530       2.720       2.944       3.206       3.504       3.836    
        4.198       4.581       4.975       4.581       4.198       3.836       3.504       3.206       2.944       2.720    
        2.530       2.370       2.233       2.112       2.000    
   4    2.000       2.112       2.233       2.370       2.530       2.720       2.944       3.206       3.504       3.836    
        4.198       4.581       4.975       4.581       4.198       3.836       3.504       3.206       2.944       2.720    
        2.530       2.370       2.233       2.112       2.000    
   5    2.000       2.112       2.233       2.370       2.530       2.720       2.944       3.206       3.504       3.836    
        4.198       4.581       4.975       4.581       4.198       3.836       3.504       3.206       2.944       2.720    
        2.530       2.370       2.233       2.112       2.000    
   6    2.000       2.112       2.233       2.370       2.530       2.720       2.944       3.206       3.504       3.836    
        4.198       4.581       4.975       4.581       4.198       3.836       3.504       3.206       2.944       2.720    
        2.530       2.370       2.233       2.112       2.000    
   7    2.000       2.112       2.233       2.370       2.530       2.720       2.944       3.206       3.504       3.836    
        4.198       4.581       4.975       4.581       4.198       3.836       3.504       3.206       2.944       2.720    
        2.530       2.370       2.233       2.112       2.000    
   8    2.000       2.112       2.233       2.370       2.530       2.720       2.944       3.206       3.504       3.836    
        4.198       4.581       4.975       4.581       4.198       3.836       3.504       3.206       2.944       2.720    
        2.530       2.370       2.233       2.112       2.000    
   9    2.000       2.112       2.233       2.370       2.530       2.720       2.944       3.206       3.504       3.836    
        4.198       4.581       4.975       4.581       4.198       3.836       3.504       3.206       2.944       2.720    
        2.530       2.370       2.233       2.112       2.000    
  10    2.000       2.112       2.233       2.370       2.530       2.720       2.944       3.206       3.504       3.836    
        4.198       4.581       4.975       4.581       4.198       3.836       3.504       3.206       2.944       2.720    
        2.530       2.370       2.233       2.112       2.000    
  11    2.000       2.112       2.233       2.370       2.530       2.720       2.944       3.206       3.504       3.836    
        4.198       4.581       4.975       4.581       4.198       3.836       3.504       3.206       2.944       2.720    
        2.530       2.370       2.233       2.112       2.000    
  12    2.000       2.112       2.233       2.370       2.530       2.720       2.944       3.206       3.504       3.836    
        4.198       4.581       4.975       4.581       4.198       3.836       3.504       3.206       2.944       2.720    
        2.530       2.370       2.233       2.112       2.000    
  13    2.000       2.112       2.233       2.370       2.530       2.720       2.944       3.206       3.504       3.836    
        4.198       4.581       4.975       4.581       4.198       3.836       3.504       3.206       2.944       2.720    
        2.530       2.370       2.233       2.112       2.000    
  14    2.000       2.112       2.233       2.370       2.530       2.720       2.944       3.206       3.504       3.836    
        4.198       4.581       4.975       4.581       4.198       3.836       3.504       3.206       2.944       2.720    
        2.530       2.370       2.233       2.112       2.000    
  15    2.000       2.112       2.233       2.370       2.530       2.720       2.944       3.206       3.504       3.836    
        4.198       4.581       4.975       4.581       4.198       3.836       3.504       3.206       2.944       2.720    
        2.530       2.370       2.233       2.112       2.000    
  16    2.000       2.112       2.233       2.370       2.530       2.720       2.944       3.206       3.504       3.836    
        4.198       4.581       4.975       4.581       4.198       3.836       3.504       3.206       2.944       2.720    
        2.530       2.370       2.233       2.112       2.000    
  17    2.000       2.112       2.233       2.370       2.530       2.720       2.944       3.206       3.504       3.836    
        4.198       4.581       4.975       4.581       4.198       3.836       3.504       3.206       2.944       2.720    
        2.530       2.370       2.233       2.112       2.000    
  18    2.000       2.112       2.233       2.370       2.530       2.720       2.944       3.206       3.504       3.836    
        4.198       4.581       4.975       4.581       4.198       3.836       3.504       3.206       2.944       2.720    
        2.530       2.370       2.233       2.112       2.000    
  19    2.000       2.112       2.233       2.370       2.530       2.720       2.944       3.206       3.504       3.836    
        4.198       4.581       4.975       4.581       4.198       3.836       3.504       3.206       2.944       2.720    
        2.530       2.370       2.233       2.112       2.000    
  20    2.000       2.112       2.233       2.370       2.530       2.720       2.944       3.206       3.504       3.836    
        4.198       4.581       4.975       4.581       4.198       3.836       3.504       3.206       2.944       2.720    
        2.530       2.370       2.233       2.112       2.000    
  21    2.000       2.112       2.233       2.370       2.530       2.720       2.944       3.206       3.504       3.836    
        4.198       4.581       4.975       4.581       4.198       3.836       3.504       3.206       2.944       2.720    
        2.530       2.370       2.233       2.112       2.000    
  22    2.000       2.112       2.233       2.370       2.530       2.720       2.944       3.206       3.504       3.836    
        4.198       4.581       4.975       4.581       4.198       3.836       3.504       3.206       2.944       2.720    
        2.530       2.370       2.233       2.112       2.000    
  23    2.000       2.112       2.233       2.370       2.530       2.720       2.944       3.206       3.504       3.836    
        4.198       4.581       4.975       4.581       4.198       3.836       3.504       3.206       2.944       2.720    
        2.530       2.370       2.233       2.112       2.000    
  24    2.000       2.112       2.233       2.370       2.530       2.720       2.944       3.206       3.504       3.836    
        4.198       4.581       4.975       4.581       4.198       3.836       3.504       3.206       2.944       2.720    
        2.530       2.370       2.233       2.112       2.000    
  25    2.000       2.112       2.233       2.370       2.530       2.720       2.944       3.206       3.504       3.836    
        4.198       4.581       4.975       4.581       4.198       3.836       3.504       3.206       2.944       2.720    
        2.530       2.370       2.233       2.112       2.000    

 HEAD WILL BE SAVED ON UNIT   51 AT END OF TIME STEP    8, STRESS PERIOD    2

 DRAWDOWN WILL BE SAVED ON UNIT   52 AT END OF TIME STEP    8, STRESS PERIOD    2
1
  VOLUMETRIC BUDGET FOR ENTIRE MODEL AT END OF TIME STEP    8, STRESS PERIOD   2
  ------------------------------------------------------------------------------

     CUMULATIVE VOLUMES      L**3       RATES FOR THIS TIME STEP      L**3/T
     ------------------                 ------------------------

           IN:                                      IN:
           ---                                      ---
             STORAGE =           0.0000               STORAGE =           0.0000
       CONSTANT HEAD =         436.8832         CONSTANT HEAD =           0.0000
       RIVER LEAKAGE =        7998.4092         RIVER LEAKAGE =         987.3378

            TOTAL IN =        8435.2920              TOTAL IN =         987.3378

          OUT:                                     OUT:
          ----                                     ----
             STORAGE =        7876.0811               STORAGE =         706.4653
       CONSTANT HEAD =         351.9552         CONSTANT HEAD =         280.8684
       RIVER LEAKAGE =         207.2539         RIVER LEAKAGE =           0.0000

           TOTAL OUT =        8435.2900             TOTAL OUT =         987.3337

            IN - OUT =       1.9531E-03              IN - OUT =       4.0894E-03

 PERCENT DISCREPANCY =           0.00     PERCENT DISCREPANCY =           0.00






         TIME SUMMARY AT END OF TIME STEP    8 IN STRESS PERIOD    2
                    SECONDS     MINUTES      HOURS       DAYS        YEARS
                    -----------------------------------------------------------
   TIME STEP LENGTH  43200.      720.00      12.000     0.50000     1.36893E-03
 STRESS PERIOD TIME 3.45600E+05  5760.0      96.000      4.0000     1.09514E-02
         TOTAL TIME 4.32000E+05  7200.0      120.00      5.0000     1.36893E-02
1
 
 SOLVING FOR HEAD 

 OUTPUT CONTROL FOR STRESS PERIOD    2   TIME STEP    9
    SAVE HEAD FOR ALL LAYERS
    SAVE DRAWDOWN FOR ALL LAYERS
    SAVE BUDGET
    PRINT HEAD FOR ALL LAYERS
    PRINT BUDGET
 UBDSV1 SAVING "         STORAGE" ON UNIT  53 AT TIME STEP  9, STRESS PERIOD   2
 UBDSV2 SAVING "   CONSTANT HEAD" ON UNIT  53 AT TIME STEP  9, STRESS PERIOD   2
 UBDSV1 SAVING "FLOW RIGHT FACE " ON UNIT  53 AT TIME STEP  9, STRESS PERIOD   2
 UBDSV1 SAVING "FLOW FRONT FACE " ON UNIT  53 AT TIME STEP  9, STRESS PERIOD   2
1
              HEAD IN LAYER   1 AT END OF TIME STEP   9 IN STRESS PERIOD    2
  ---------------------------------------------------------------------------

            1           2           3           4           5           6           7           8           9          10
           11          12          13          14          15          16          17          18          19          20
           21          22          23          24          25
 ........................................................................................................................
   1    2.000       2.135       2.277       2.433       2.609       2.810       3.040       3.300       3.591       3.909    
        4.251       4.609       4.977       4.609       4.251       3.909       3.591       3.300       3.040       2.810    
        2.609       2.433       2.277       2.135       2.000    
   2    2.000       2.135       2.277       2.433       2.609       2.810       3.040       3.300       3.591       3.909    
        4.251       4.609       4.977       4.609       4.251       3.909       3.591       3.300       3.040       2.810    
        2.609       2.433       2.277       2.135       2.000    
   3    2.000       2.135       2.277       2.433       2.609       2.810       3.040       3.300       3.591       3.909    
        4.251       4.609       4.977       4.609       4.251       3.909       3.591       3.300       3.040       2.810    
        2.609       2.433       2.277       2.135       2.000    
   4    2.000       2.135       2.277       2.433       2.609       2.810       3.040       3.300       3.591       3.909    
        4.251       4.609       4.977       4.609       4.251       3.909       3.591       3.300       3.040       2.810    
        2.609       2.433       2.277       2.135       2.000    
   5    2.000       2.135       2.277       2.433       2.609       2.810       3.040       3.300       3.591       3.909    
        4.251       4.609       4.977       4.609       4.251       3.909       3.591       3.300       3.040       2.810    
        2.609       2.433       2.277       2.135       2.000    
   6    2.000       2.135       2.277       2.433       2.609       2.810       3.040       3.300       3.591       3.909    
        4.251       4.609       4.977       4.609       4.251       3.909       3.591       3.300       3.040       2.810    
        2.609       2.433       2.277       2.135       2.000    
   7    2.000       2.135       2.277       2.433       2.609       2.810       3.040       3.300       3.591       3.909    
        4.251       4.609       4.977       4.609       4.251       3.909       3.591       3.300       3.040       2.810    
        2.609       2.433       2.277       2.135       2.000    
   8    2.000       2.135       2.277       2.433       2.609       2.810       3.040       3.300       3.591       3.909    
        4.251       4.609       4.977       4.609       4.251       3.909       3.591       3.300       3.040       2.810    
        2.609       2.433       2.277       2.135       2.000    
   9    2.000       2.135       2.277       2.433       2.609       2.810       3.040       3.300       3.591       3.909    
        4.251       4.609       4.977       4.609       4.251       3.909       3.591       3.300       3.040       2.810    
        2.609       2.433       2.277       2.135       2.000    
  10    2.000       2.135       2.277       2.433       2.609       2.810       3.040       3.300       3.591       3.909    
        4.251       4.609       4.977       4.609       4.251       3.909       3.591       3.300       3.040       2.810    
        2.609       2.433       2.277       2.135       2.000    
  11    2.000       2.135       2.277       2.433       2.609       2.810       3.040       3.300       3.591       3.909    
        4.251       4.609       4.977       4.609       4.251       3.909       3.591       3.300       3.040       2.810    
        2.609       2.433       2.277       2.135       2.000    
  12    2.000       2.135       2.277       2.433       2.609       2.810       3.040       3.300       3.591       3.909    
        4.251       4.609       4.977       4.609       4.251       3.909       3.591       3.300       3.040       2.810    
        2.609       2.433       2.277       2.135       2.000    
  13    2.000       2.135       2.277       2.433       2.609       2.810       3.040       3.300       3.591       3.909    
        4.251       4.609       4.977       4.609       4.251       3.909       3.591       3.300       3.040       2.810    
        2.609       2.433       2.277       2.135       2.000    
  14    2.000       2.135       2.277       2.433       2.609       2.810       3.040       3.300       3.591       3.909    
        4.251       4.609       4.977       4.609       4.251       3.909       3.591       3.300       3.040       2.810    
        2.609       2.433       2.277       2.135       2.000    
  15    2.000       2.135       2.277       2.433       2.609       2.810       3.040       3.300       3.591       3.909    
        4.251       4.609       4.977       4.609       4.251       3.909       3.591       3.300       3.040       2.810    
        2.609       2.433       2.277       2.135       2.000    
  16    2.000       2.135       2.277       2.433       2.609       2.810       3.040       3.300       3.591       3.909    
        4.251       4.609       4.977       4.609       4.251       3.909       3.591       3.300       3.040       2.810    
        2.609       2.433       2.277       2.135       2.000    
  17    2.000       2.135       2.277       2.433       2.609       2.810       3.040       3.300       3.591       3.909    
        4.251       4.609       4.977       4.609       4.251       3.909       3.591       3.300       3.040       2.810    
        2.609       2.433       2.277       2.135       2.000    
  18    2.000       2.135       2.277       2.433       2.609       2.810       3.040       3.300       3.591       3.909    
        4.251       4.609       4.977       4.609       4.251       3.909       3.591       3.300       3.040       2.810    
        2.609       2.433       2.277       2.135       2.000    
  19    2.000       2.135       2.277       2.433       2.609       2.810       3.040       3.300       3.591       3.909    
        4.251       4.609       4.977       4.609       4.251       3.909       3.591       3.300       3.040       2.810    
        2.609       2.433       2.277       2.135       2.000    
  20    2.000       2.135       2.277       2.433       2.609       2.810       3.040       3.300       3.591       3.909    
        4.251       4.609       4.977       4.609       4.251       3.909       3.591       3.300       3.040       2.810    
        2.609       2.433       2.277       2.135       2.000    
  21    2.000       2.135       2.277       2.433       2.609       2.810       3.040       3.300       3.591       3.909    
        4.251       4.609       4.977       4.609       4.251       3.909       3.591       3.300       3.040       2.810    
        2.609       2.433       2.277       2.135       2.000    
  22    2.000       2.135       2.277       2.433       2.609       2.810       3.040       3.300       3.591       3.909    
        4.251       4.609       4.977       4.609       4.251       3.909       3.591       3.300       3.040       2.810    
        2.609       2.433       2.277       2.135       2.000    
  23    2.000       2.135       2.277       2.433       2.609       2.810       3.040       3.300       3.591       3.909    
        4.251       4.609       4.977       4.609       4.251       3.909       3.591       3.300       3.040       2.810    
        2.609       2.433       2.277       2.135       2.000    
  24    2.000       2.135       2.277       2.433       2.609       2.810       3.040       3.300       3.591       3.909    
        4.251       4.609       4.977       4.609       4.251       3.909       3.591       3.300       3.040       2.810    
        2.609       2.433       2.277       2.135       2.000    
  25    2.000       2.135       2.277       2.433       2.609       2.810       3.040       3.300       3.591       3.909    
        4.251       4.609       4.977       4.609       4.251       3.909       3.591       3.300       3.040       2.810    
        2.609       2.433       2.277       2.135       2.000    

 HEAD WILL BE SAVED ON UNIT   51 AT END OF TIME STEP    9, STRESS PERIOD    2

 DRAWDOWN WILL BE SAVED ON UNIT   52 AT END OF TIME STEP    9, STRESS PERIOD    2
1
  VOLUMETRIC BUDGET FOR ENTIRE MODEL AT END OF TIME STEP    9, STRESS PERIOD   2
  ------------------------------------------------------------------------------

     CUMULATIVE VOLUMES      L**3       RATES FOR THIS TIME STEP      L**3/T
     ------------------                 ------------------------

           IN:                                      IN:
           ---                                      ---
             STORAGE =           0.0000               STORAGE =           0.0000
       CONSTANT HEAD =         436.8832         CONSTANT HEAD =           0.0000
       RIVER LEAKAGE =        8458.4414         RIVER LEAKAGE =         920.0646

            TOTAL IN =        8895.3242              TOTAL IN =         920.0646

          OUT:                                     OUT:
          ----                                     ----
             STORAGE =        8167.6470               STORAGE =         583.1314
       CONSTANT HEAD =         520.4203         CONSTANT HEAD =         336.9302
       RIVER LEAKAGE =         207.2539         RIVER LEAKAGE =           0.0000

           TOTAL OUT =        8895.3213             TOTAL OUT =         920.0616

            IN - OUT =       2.9297E-03              IN - OUT =       2.9297E-03

 PERCENT DISCREPANCY =           0.00     PERCENT DISCREPANCY =           0.00






         TIME SUMMARY AT END OF TIME STEP    9 IN STRESS PERIOD    2
                    SECONDS     MINUTES      HOURS       DAYS        YEARS
                    -----------------------------------------------------------
   TIME STEP LENGTH  43200.      720.00      12.000     0.50000     1.36893E-03
 STRESS PERIOD TIME 3.88800E+05  6480.0      108.00      4.5000     1.23203E-02
         TOTAL TIME 4.75200E+05  7920.0      132.00      5.5000     1.50582E-02
1
 
 SOLVING FOR HEAD 

 OUTPUT CONTROL FOR STRESS PERIOD    2   TIME STEP   10
    SAVE HEAD FOR ALL LAYERS
    SAVE DRAWDOWN FOR ALL LAYERS
    SAVE BUDGET
    PRINT HEAD FOR ALL LAYERS
    PRINT BUDGET
 UBDSV1 SAVING "         STORAGE" ON UNIT  53 AT TIME STEP 10, STRESS PERIOD   2
 UBDSV2 SAVING "   CONSTANT HEAD" ON UNIT  53 AT TIME STEP 10, STRESS PERIOD   2
 UBDSV1 SAVING "FLOW RIGHT FACE " ON UNIT  53 AT TIME STEP 10, STRESS PERIOD   2
 UBDSV1 SAVING "FLOW FRONT FACE " ON UNIT  53 AT TIME STEP 10, STRESS PERIOD   2
1
              HEAD IN LAYER   1 AT END OF TIME STEP  10 IN STRESS PERIOD    2
  ---------------------------------------------------------------------------

            1           2           3           4           5           6           7           8           9          10
           11          12          13          14          15          16          17          18          19          20
           21          22          23          24          25
 ........................................................................................................................
   1    2.000       2.154       2.314       2.486       2.675       2.885       3.118       3.377       3.661       3.968    
        4.293       4.632       4.978       4.632       4.293       3.968       3.661       3.377       3.118       2.885    
        2.675       2.486       2.314       2.154       2.000    
   2    2.000       2.154       2.314       2.486       2.675       2.885       3.118       3.377       3.661       3.968    
        4.293       4.632       4.978       4.632       4.293       3.968       3.661       3.377       3.118       2.885    
        2.675       2.486       2.314       2.154       2.000    
   3    2.000       2.154       2.314       2.486       2.675       2.885       3.118       3.377       3.661       3.968    
        4.293       4.632       4.978       4.632       4.293       3.968       3.661       3.377       3.118       2.885    
        2.675       2.486       2.314       2.154       2.000    
   4    2.000       2.154       2.314       2.486       2.675       2.885       3.118       3.377       3.661       3.968    
        4.293       4.632       4.978       4.632       4.293       3.968       3.661       3.377       3.118       2.885    
        2.675       2.486       2.314       2.154       2.000    
   5    2.000       2.154       2.314       2.486       2.675       2.885       3.118       3.377       3.661       3.968    
        4.293       4.632       4.978       4.632       4.293       3.968       3.661       3.377       3.118       2.885    
        2.675       2.486       2.314       2.154       2.000    
   6    2.000       2.154       2.314       2.486       2.675       2.885       3.118       3.377       3.661       3.968    
        4.293       4.632       4.978       4.632       4.293       3.968       3.661       3.377       3.118       2.885    
        2.675       2.486       2.314       2.154       2.000    
   7    2.000       2.154       2.314       2.486       2.675       2.885       3.118       3.377       3.661       3.968    
        4.293       4.632       4.978       4.632       4.293       3.968       3.661       3.377       3.118       2.885    
        2.675       2.486       2.314       2.154       2.000    
   8    2.000       2.154       2.314       2.486       2.675       2.885       3.118       3.377       3.661       3.968    
        4.293       4.632       4.978       4.632       4.293       3.968       3.661       3.377       3.118       2.885    
        2.675       2.486       2.314       2.154       2.000    
   9    2.000       2.154       2.314       2.486       2.675       2.885       3.118       3.377       3.661       3.968    
        4.293       4.632       4.978       4.632       4.293       3.968       3.661       3.377       3.118       2.885    
        2.675       2.486       2.314       2.154       2.000    
  10    2.000       2.154       2.314       2.486       2.675       2.885       3.118       3.377       3.661       3.968    
        4.293       4.632       4.978       4.632       4.293       3.968       3.661       3.377       3.118       2.885    
        2.675       2.486       2.314       2.154       2.000    
  11    2.000       2.154       2.314       2.486       2.675       2.885       3.118       3.377       3.661       3.968    
        4.293       4.632       4.978       4.632       4.293       3.968       3.661       3.377       3.118       2.885    
        2.675       2.486       2.314       2.154       2.000    
  12    2.000       2.154       2.314       2.486       2.675       2.885       3.118       3.377       3.661       3.968    
        4.293       4.632       4.978       4.632       4.293       3.968       3.661       3.377       3.118       2.885    
        2.675       2.486       2.314       2.154       2.000    
  13    2.000       2.154       2.314       2.486       2.675       2.885       3.118       3.377       3.661       3.968    
        4.293       4.632       4.978       4.632       4.293       3.968       3.661       3.377       3.118       2.885    
        2.675       2.486       2.314       2.154       2.000    
  14    2.000       2.154       2.314       2.486       2.675       2.885       3.118       3.377       3.661       3.968    
        4.293       4.632       4.978       4.632       4.293       3.968       3.661       3.377       3.118       2.885    
        2.675       2.486       2.314       2.154       2.000    
  15    2.000       2.154       2.314       2.486       2.675       2.885       3.118       3.377       3.661       3.968    
        4.293       4.632       4.978       4.632       4.293       3.968       3.661       3.377       3.118       2.885    
        2.675       2.486       2.314       2.154       2.000    
  16    2.000       2.154       2.314       2.486       2.675       2.885       3.118       3.377       3.661       3.968    
        4.293       4.632       4.978       4.632       4.293       3.968       3.661       3.377       3.118       2.885    
        2.675       2.486       2.314       2.154       2.000    
  17    2.000       2.154       2.314       2.486       2.675       2.885       3.118       3.377       3.661       3.968    
        4.293       4.632       4.978       4.632       4.293       3.968       3.661       3.377       3.118       2.885    
        2.675       2.486       2.314       2.154       2.000    
  18    2.000       2.154       2.314       2.486       2.675       2.885       3.118       3.377       3.661       3.968    
        4.293       4.632       4.978       4.632       4.293       3.968       3.661       3.377       3.118       2.885    
        2.675       2.486       2.314       2.154       2.000    
  19    2.000       2.154       2.314       2.486       2.675       2.885       3.118       3.377       3.661       3.968    
        4.293       4.632       4.978       4.632       4.293       3.968       3.661       3.377       3.118       2.885    
        2.675       2.486       2.314       2.154       2.000    
  20    2.000       2.154       2.314       2.486       2.675       2.885       3.118       3.377       3.661       3.968    
        4.293       4.632       4.978       4.632       4.293       3.968       3.661       3.377       3.118       2.885    
        2.675       2.486       2.314       2.154       2.000    
  21    2.000       2.154       2.314       2.486       2.675       2.885       3.118       3.377       3.661       3.968    
        4.293       4.632       4.978       4.632       4.293       3.968       3.661       3.377       3.118       2.885    
        2.675       2.486       2.314       2.154       2.000    
  22    2.000       2.154       2.314       2.486       2.675       2.885       3.118       3.377       3.661       3.968    
        4.293       4.632       4.978       4.632       4.293       3.968       3.661       3.377       3.118       2.885    
        2.675       2.486       2.314       2.154       2.000    
  23    2.000       2.154       2.314       2.486       2.675       2.885       3.118       3.377       3.661       3.968    
        4.293       4.632       4.978       4.632       4.293       3.968       3.661       3.377       3.118       2.885    
        2.675       2.486       2.314       2.154       2.000    
  24    2.000       2.154       2.314       2.486       2.675       2.885       3.118       3.377       3.661       3.968    
        4.293       4.632       4.978       4.632       4.293       3.968       3.661       3.377       3.118       2.885    
        2.675       2.486       2.314       2.154       2.000    
  25    2.000       2.154       2.314       2.486       2.675       2.885       3.118       3.377       3.661       3.968    
        4.293       4.632       4.978       4.632       4.293       3.968       3.661       3.377       3.118       2.885    
        2.675       2.486       2.314       2.154       2.000    

 HEAD WILL BE SAVED ON UNIT   51 AT END OF TIME STEP   10, STRESS PERIOD    2

 DRAWDOWN WILL BE SAVED ON UNIT   52 AT END OF TIME STEP   10, STRESS PERIOD    2
1
  VOLUMETRIC BUDGET FOR ENTIRE MODEL AT END OF TIME STEP   10, STRESS PERIOD   2
  ------------------------------------------------------------------------------

     CUMULATIVE VOLUMES      L**3       RATES FOR THIS TIME STEP      L**3/T
     ------------------                 ------------------------

           IN:                                      IN:
           ---                                      ---
             STORAGE =           0.0000               STORAGE =           0.0000
       CONSTANT HEAD =         436.8832         CONSTANT HEAD =           0.0000
       RIVER LEAKAGE =        8891.5342         RIVER LEAKAGE =         866.1851

            TOTAL IN =        9328.4170              TOTAL IN =         866.1851

          OUT:                                     OUT:
          ----                                     ----
             STORAGE =        8408.3916               STORAGE =         481.4888
       CONSTANT HEAD =         712.7663         CONSTANT HEAD =         384.6920
       RIVER LEAKAGE =         207.2539         RIVER LEAKAGE =           0.0000

           TOTAL OUT =        9328.4121             TOTAL OUT =         866.1808

            IN - OUT =       4.8828E-03              IN - OUT =       4.3335E-03

 PERCENT DISCREPANCY =           0.00     PERCENT DISCREPANCY =           0.00






         TIME SUMMARY AT END OF TIME STEP   10 IN STRESS PERIOD    2
                    SECONDS     MINUTES      HOURS       DAYS        YEARS
                    -----------------------------------------------------------
   TIME STEP LENGTH  43200.      720.00      12.000     0.50000     1.36893E-03
 STRESS PERIOD TIME 4.32000E+05  7200.0      120.00      5.0000     1.36893E-02
         TOTAL TIME 5.18400E+05  8640.0      144.00      6.0000     1.64271E-02
1
1
                            STRESS PERIOD NO.    3, LENGTH =   5.000000    
                            -----------------------------------------------

                              NUMBER OF TIME STEPS =    10

                               MULTIPLIER FOR DELT =     1.000

                            INITIAL TIME STEP SIZE =  0.5000000    

 REACH NO.  LAYER   ROW   COL     STAGE      CONDUCTANCE     BOTTOM EL.         
 -------------------------------------------------------------------------------
      1      1      1     13       1.000           1600.           0.000    
      2      1      2     13       1.000           1600.           0.000    
      3      1      3     13       1.000           1600.           0.000    
      4      1      4     13       1.000           1600.           0.000    
      5      1      5     13       1.000           1600.           0.000    
      6      1      6     13       1.000           1600.           0.000    
      7      1      7     13       1.000           1600.           0.000    
      8      1      8     13       1.000           1600.           0.000    
      9      1      9     13       1.000           1600.           0.000    
     10      1     10     13       1.000           1600.           0.000    
     11      1     11     13       1.000           1600.           0.000    
     12      1     12     13       1.000           1600.           0.000    
     13      1     13     13       1.000           1600.           0.000    
     14      1     14     13       1.000           1600.           0.000    
     15      1     15     13       1.000           1600.           0.000    
     16      1     16     13       1.000           1600.           0.000    
     17      1     17     13       1.000           1600.           0.000    
     18      1     18     13       1.000           1600.           0.000    
     19      1     19     13       1.000           1600.           0.000    
     20      1     20     13       1.000           1600.           0.000    
     21      1     21     13       1.000           1600.           0.000    
     22      1     22     13       1.000           1600.           0.000    
     23      1     23     13       1.000           1600.           0.000    
     24      1     24     13       1.000           1600.           0.000    
     25      1     25     13       1.000           1600.           0.000    

     25 RIVER REACHES

 REUSING NON-PARAMETER SPECIFIED-HEAD DATA FROM LAST STRESS PERIOD


     50 TIME-VARIANT SPECIFIED-HEAD CELLS
 
 SOLVING FOR HEAD 

 OUTPUT CONTROL FOR STRESS PERIOD    3   TIME STEP    1
    SAVE HEAD FOR ALL LAYERS
    SAVE DRAWDOWN FOR ALL LAYERS
    SAVE BUDGET
    PRINT HEAD FOR ALL LAYERS
    PRINT BUDGET
 UBDSV1 SAVING "         STORAGE" ON UNIT  53 AT TIME STEP  1, STRESS PERIOD   3
 UBDSV2 SAVING "   CONSTANT HEAD" ON UNIT  53 AT TIME STEP  1, STRESS PERIOD   3
 UBDSV1 SAVING "FLOW RIGHT FACE " ON UNIT  53 AT TIME STEP  1, STRESS PERIOD   3
 UBDSV1 SAVING "FLOW FRONT FACE " ON UNIT  53 AT TIME STEP  1, STRESS PERIOD   3
1
              HEAD IN LAYER   1 AT END OF TIME STEP   1 IN STRESS PERIOD    3
  ---------------------------------------------------------------------------

            1           2           3           4           5           6           7           8           9          10
           11          12          13          14          15          16          17          18          19          20
           21          22          23          24          25
 ........................................................................................................................
   1    2.000       2.164       2.332       2.506       2.686       2.870       3.048       3.205       3.306       3.293    
        3.065       2.443       1.121       2.443       3.065       3.293       3.306       3.205       3.048       2.870    
        2.686       2.506       2.332       2.164       2.000    
   2    2.000       2.164       2.332       2.506       2.686       2.870       3.048       3.205       3.306       3.293    
        3.065       2.443       1.121       2.443       3.065       3.293       3.306       3.205       3.048       2.870    
        2.686       2.506       2.332       2.164       2.000    
   3    2.000       2.164       2.332       2.506       2.686       2.870       3.048       3.205       3.306       3.293    
        3.065       2.443       1.121       2.443       3.065       3.293       3.306       3.205       3.048       2.870    
        2.686       2.506       2.332       2.164       2.000    
   4    2.000       2.164       2.332       2.506       2.686       2.870       3.048       3.205       3.306       3.293    
        3.065       2.443       1.121       2.443       3.065       3.293       3.306       3.205       3.048       2.870    
        2.686       2.506       2.332       2.164       2.000    
   5    2.000       2.164       2.332       2.506       2.686       2.870       3.048       3.205       3.306       3.293    
        3.065       2.443       1.121       2.443       3.065       3.293       3.306       3.205       3.048       2.870    
        2.686       2.506       2.332       2.164       2.000    
   6    2.000       2.164       2.332       2.506       2.686       2.870       3.048       3.205       3.306       3.293    
        3.065       2.443       1.121       2.443       3.065       3.293       3.306       3.205       3.048       2.870    
        2.686       2.506       2.332       2.164       2.000    
   7    2.000       2.164       2.332       2.506       2.686       2.870       3.048       3.205       3.306       3.293    
        3.065       2.443       1.121       2.443       3.065       3.293       3.306       3.205       3.048       2.870    
        2.686       2.506       2.332       2.164       2.000    
   8    2.000       2.164       2.332       2.506       2.686       2.870       3.048       3.205       3.306       3.293    
        3.065       2.443       1.121       2.443       3.065       3.293       3.306       3.205       3.048       2.870    
        2.686       2.506       2.332       2.164       2.000    
   9    2.000       2.164       2.332       2.506       2.686       2.870       3.048       3.205       3.306       3.293    
        3.065       2.443       1.121       2.443       3.065       3.293       3.306       3.205       3.048       2.870    
        2.686       2.506       2.332       2.164       2.000    
  10    2.000       2.164       2.332       2.506       2.686       2.870       3.048       3.205       3.306       3.293    
        3.065       2.443       1.121       2.443       3.065       3.293       3.306       3.205       3.048       2.870    
        2.686       2.506       2.332       2.164       2.000    
  11    2.000       2.164       2.332       2.506       2.686       2.870       3.048       3.205       3.306       3.293    
        3.065       2.443       1.121       2.443       3.065       3.293       3.306       3.205       3.048       2.870    
        2.686       2.506       2.332       2.164       2.000    
  12    2.000       2.164       2.332       2.506       2.686       2.870       3.048       3.205       3.306       3.293    
        3.065       2.443       1.121       2.443       3.065       3.293       3.306       3.205       3.048       2.870    
        2.686       2.506       2.332       2.164       2.000    
  13    2.000       2.164       2.332       2.506       2.686       2.870       3.048       3.205       3.306       3.293    
        3.065       2.443       1.121       2.443       3.065       3.293       3.306       3.205       3.048       2.870    
        2.686       2.506       2.332       2.164       2.000    
  14    2.000       2.164       2.332       2.506       2.686       2.870       3.048       3.205       3.306       3.293    
        3.065       2.443       1.121       2.443       3.065       3.293       3.306       3.205       3.048       2.870    
        2.686       2.506       2.332       2.164       2.000    
  15    2.000       2.164       2.332       2.506       2.686       2.870       3.048       3.205       3.306       3.293    
        3.065       2.443       1.121       2.443       3.065       3.293       3.306       3.205       3.048       2.870    
        2.686       2.506       2.332       2.164       2.000    
  16    2.000       2.164       2.332       2.506       2.686       2.870       3.048       3.205       3.306       3.293    
        3.065       2.443       1.121       2.443       3.065       3.293       3.306       3.205       3.048       2.870    
        2.686       2.506       2.332       2.164       2.000    
  17    2.000       2.164       2.332       2.506       2.686       2.870       3.048       3.205       3.306       3.293    
        3.065       2.443       1.121       2.443       3.065       3.293       3.306       3.205       3.048       2.870    
        2.686       2.506       2.332       2.164       2.000    
  18    2.000       2.164       2.332       2.506       2.686       2.870       3.048       3.205       3.306       3.293    
        3.065       2.443       1.121       2.443       3.065       3.293       3.306       3.205       3.048       2.870    
        2.686       2.506       2.332       2.164       2.000    
  19    2.000       2.164       2.332       2.506       2.686       2.870       3.048       3.205       3.306       3.293    
        3.065       2.443       1.121       2.443       3.065       3.293       3.306       3.205       3.048       2.870    
        2.686       2.506       2.332       2.164       2.000    
  20    2.000       2.164       2.332       2.506       2.686       2.870       3.048       3.205       3.306       3.293    
        3.065       2.443       1.121       2.443       3.065       3.293       3.306       3.205       3.048       2.870    
        2.686       2.506       2.332       2.164       2.000    
  21    2.000       2.164       2.332       2.506       2.686       2.870       3.048       3.205       3.306       3.293    
        3.065       2.443       1.121       2.443       3.065       3.293       3.306       3.205       3.048       2.870    
        2.686       2.506       2.332       2.164       2.000    
  22    2.000       2.164       2.332       2.506       2.686       2.870       3.048       3.205       3.306       3.293    
        3.065       2.443       1.121       2.443       3.065       3.293       3.306       3.205       3.048       2.870    
        2.686       2.506       2.332       2.164       2.000    
  23    2.000       2.164       2.332       2.506       2.686       2.870       3.048       3.205       3.306       3.293    
        3.065       2.443       1.121       2.443       3.065       3.293       3.306       3.205       3.048       2.870    
        2.686       2.506       2.332       2.164       2.000    
  24    2.000       2.164       2.332       2.506       2.686       2.870       3.048       3.205       3.306       3.293    
        3.065       2.443       1.121       2.443       3.065       3.293       3.306       3.205       3.048       2.870    
        2.686       2.506       2.332       2.164       2.000    
  25    2.000       2.164       2.332       2.506       2.686       2.870       3.048       3.205       3.306       3.293    
        3.065       2.443       1.121       2.443       3.065       3.293       3.306       3.205       3.048       2.870    
        2.686       2.506       2.332       2.164       2.000    

 HEAD WILL BE SAVED ON UNIT   51 AT END OF TIME STEP    1, STRESS PERIOD    3

 DRAWDOWN WILL BE SAVED ON UNIT   52 AT END OF TIME STEP    1, STRESS PERIOD    3
1
  VOLUMETRIC BUDGET FOR ENTIRE MODEL AT END OF TIME STEP    1, STRESS PERIOD   3
  ------------------------------------------------------------------------------

     CUMULATIVE VOLUMES      L**3       RATES FOR THIS TIME STEP      L**3/T
     ------------------                 ------------------------

           IN:                                      IN:
           ---                                      ---
             STORAGE =        2653.4954               STORAGE =        5306.9907
       CONSTANT HEAD =         436.8832         CONSTANT HEAD =           0.0000
       RIVER LEAKAGE =        8891.5342         RIVER LEAKAGE =           0.0000

            TOTAL IN =       11981.9121              TOTAL IN =        5306.9907

          OUT:                                     OUT:
          ----                                     ----
             STORAGE =        8432.4473               STORAGE =          48.1123
       CONSTANT HEAD =         918.2702         CONSTANT HEAD =         411.0078
       RIVER LEAKAGE =        2631.1897         RIVER LEAKAGE =        4847.8716

           TOTAL OUT =       11981.9072             TOTAL OUT =        5306.9917

            IN - OUT =       4.8828E-03              IN - OUT =      -9.7656E-04

 PERCENT DISCREPANCY =           0.00     PERCENT DISCREPANCY =          -0.00






         TIME SUMMARY AT END OF TIME STEP    1 IN STRESS PERIOD    3
                    SECONDS     MINUTES      HOURS       DAYS        YEARS
                    -----------------------------------------------------------
   TIME STEP LENGTH  43200.      720.00      12.000     0.50000     1.36893E-03
 STRESS PERIOD TIME  43200.      720.00      12.000     0.50000     1.36893E-03
         TOTAL TIME 5.61600E+05  9360.0      156.00      6.5000     1.77960E-02
1
 
 SOLVING FOR HEAD 

 OUTPUT CONTROL FOR STRESS PERIOD    3   TIME STEP    2
    SAVE HEAD FOR ALL LAYERS
    SAVE DRAWDOWN FOR ALL LAYERS
    SAVE BUDGET
    PRINT HEAD FOR ALL LAYERS
    PRINT BUDGET
 UBDSV1 SAVING "         STORAGE" ON UNIT  53 AT TIME STEP  2, STRESS PERIOD   3
 UBDSV2 SAVING "   CONSTANT HEAD" ON UNIT  53 AT TIME STEP  2, STRESS PERIOD   3
 UBDSV1 SAVING "FLOW RIGHT FACE " ON UNIT  53 AT TIME STEP  2, STRESS PERIOD   3
 UBDSV1 SAVING "FLOW FRONT FACE " ON UNIT  53 AT TIME STEP  2, STRESS PERIOD   3
1
              HEAD IN LAYER   1 AT END OF TIME STEP   2 IN STRESS PERIOD    3
  ---------------------------------------------------------------------------

            1           2           3           4           5           6           7           8           9          10
           11          12          13          14          15          16          17          18          19          20
           21          22          23          24          25
 ........................................................................................................................
   1    2.000       2.163       2.325       2.484       2.637       2.773       2.879       2.931       2.896       2.729    
        2.382       1.816       1.049       1.816       2.382       2.729       2.896       2.931       2.879       2.773    
        2.637       2.484       2.325       2.163       2.000    
   2    2.000       2.163       2.325       2.484       2.637       2.773       2.879       2.931       2.896       2.729    
        2.382       1.816       1.049       1.816       2.382       2.729       2.896       2.931       2.879       2.773    
        2.637       2.484       2.325       2.163       2.000    
   3    2.000       2.163       2.325       2.484       2.637       2.773       2.879       2.931       2.896       2.729    
        2.382       1.816       1.049       1.816       2.382       2.729       2.896       2.931       2.879       2.773    
        2.637       2.484       2.325       2.163       2.000    
   4    2.000       2.163       2.325       2.484       2.637       2.773       2.879       2.931       2.896       2.729    
        2.382       1.816       1.049       1.816       2.382       2.729       2.896       2.931       2.879       2.773    
        2.637       2.484       2.325       2.163       2.000    
   5    2.000       2.163       2.325       2.484       2.637       2.773       2.879       2.931       2.896       2.729    
        2.382       1.816       1.049       1.816       2.382       2.729       2.896       2.931       2.879       2.773    
        2.637       2.484       2.325       2.163       2.000    
   6    2.000       2.163       2.325       2.484       2.637       2.773       2.879       2.931       2.896       2.729    
        2.382       1.816       1.049       1.816       2.382       2.729       2.896       2.931       2.879       2.773    
        2.637       2.484       2.325       2.163       2.000    
   7    2.000       2.163       2.325       2.484       2.637       2.773       2.879       2.931       2.896       2.729    
        2.382       1.816       1.049       1.816       2.382       2.729       2.896       2.931       2.879       2.773    
        2.637       2.484       2.325       2.163       2.000    
   8    2.000       2.163       2.325       2.484       2.637       2.773       2.879       2.931       2.896       2.729    
        2.382       1.816       1.049       1.816       2.382       2.729       2.896       2.931       2.879       2.773    
        2.637       2.484       2.325       2.163       2.000    
   9    2.000       2.163       2.325       2.484       2.637       2.773       2.879       2.931       2.896       2.729    
        2.382       1.816       1.049       1.816       2.382       2.729       2.896       2.931       2.879       2.773    
        2.637       2.484       2.325       2.163       2.000    
  10    2.000       2.163       2.325       2.484       2.637       2.773       2.879       2.931       2.896       2.729    
        2.382       1.816       1.049       1.816       2.382       2.729       2.896       2.931       2.879       2.773    
        2.637       2.484       2.325       2.163       2.000    
  11    2.000       2.163       2.325       2.484       2.637       2.773       2.879       2.931       2.896       2.729    
        2.382       1.816       1.049       1.816       2.382       2.729       2.896       2.931       2.879       2.773    
        2.637       2.484       2.325       2.163       2.000    
  12    2.000       2.163       2.325       2.484       2.637       2.773       2.879       2.931       2.896       2.729    
        2.382       1.816       1.049       1.816       2.382       2.729       2.896       2.931       2.879       2.773    
        2.637       2.484       2.325       2.163       2.000    
  13    2.000       2.163       2.325       2.484       2.637       2.773       2.879       2.931       2.896       2.729    
        2.382       1.816       1.049       1.816       2.382       2.729       2.896       2.931       2.879       2.773    
        2.637       2.484       2.325       2.163       2.000    
  14    2.000       2.163       2.325       2.484       2.637       2.773       2.879       2.931       2.896       2.729    
        2.382       1.816       1.049       1.816       2.382       2.729       2.896       2.931       2.879       2.773    
        2.637       2.484       2.325       2.163       2.000    
  15    2.000       2.163       2.325       2.484       2.637       2.773       2.879       2.931       2.896       2.729    
        2.382       1.816       1.049       1.816       2.382       2.729       2.896       2.931       2.879       2.773    
        2.637       2.484       2.325       2.163       2.000    
  16    2.000       2.163       2.325       2.484       2.637       2.773       2.879       2.931       2.896       2.729    
        2.382       1.816       1.049       1.816       2.382       2.729       2.896       2.931       2.879       2.773    
        2.637       2.484       2.325       2.163       2.000    
  17    2.000       2.163       2.325       2.484       2.637       2.773       2.879       2.931       2.896       2.729    
        2.382       1.816       1.049       1.816       2.382       2.729       2.896       2.931       2.879       2.773    
        2.637       2.484       2.325       2.163       2.000    
  18    2.000       2.163       2.325       2.484       2.637       2.773       2.879       2.931       2.896       2.729    
        2.382       1.816       1.049       1.816       2.382       2.729       2.896       2.931       2.879       2.773    
        2.637       2.484       2.325       2.163       2.000    
  19    2.000       2.163       2.325       2.484       2.637       2.773       2.879       2.931       2.896       2.729    
        2.382       1.816       1.049       1.816       2.382       2.729       2.896       2.931       2.879       2.773    
        2.637       2.484       2.325       2.163       2.000    
  20    2.000       2.163       2.325       2.484       2.637       2.773       2.879       2.931       2.896       2.729    
        2.382       1.816       1.049       1.816       2.382       2.729       2.896       2.931       2.879       2.773    
        2.637       2.484       2.325       2.163       2.000    
  21    2.000       2.163       2.325       2.484       2.637       2.773       2.879       2.931       2.896       2.729    
        2.382       1.816       1.049       1.816       2.382       2.729       2.896       2.931       2.879       2.773    
        2.637       2.484       2.325       2.163       2.000    
  22    2.000       2.163       2.325       2.484       2.637       2.773       2.879       2.931       2.896       2.729    
        2.382       1.816       1.049       1.816       2.382       2.729       2.896       2.931       2.879       2.773    
        2.637       2.484       2.325       2.163       2.000    
  23    2.000       2.163       2.325       2.484       2.637       2.773       2.879       2.931       2.896       2.729    
        2.382       1.816       1.049       1.816       2.382       2.729       2.896       2.931       2.879       2.773    
        2.637       2.484       2.325       2.163       2.000    
  24    2.000       2.163       2.325       2.484       2.637       2.773       2.879       2.931       2.896       2.729    
        2.382       1.816       1.049       1.816       2.382       2.729       2.896       2.931       2.879       2.773    
        2.637       2.484       2.325       2.163       2.000    
  25    2.000       2.163       2.325       2.484       2.637       2.773       2.879       2.931       2.896       2.729    
        2.382       1.816       1.049       1.816       2.382       2.729       2.896       2.931       2.879       2.773    
        2.637       2.484       2.325       2.163       2.000    

 HEAD WILL BE SAVED ON UNIT   51 AT END OF TIME STEP    2, STRESS PERIOD    3

 DRAWDOWN WILL BE SAVED ON UNIT   52 AT END OF TIME STEP    2, STRESS PERIOD    3
1
  VOLUMETRIC BUDGET FOR ENTIRE MODEL AT END OF TIME STEP    2, STRESS PERIOD   3
  ------------------------------------------------------------------------------

     CUMULATIVE VOLUMES      L**3       RATES FOR THIS TIME STEP      L**3/T
     ------------------                 ------------------------

           IN:                                      IN:
           ---                                      ---
             STORAGE =        3829.7866               STORAGE =        2352.5825
       CONSTANT HEAD =         436.8832         CONSTANT HEAD =           0.0000
       RIVER LEAKAGE =        8891.5342         RIVER LEAKAGE =           0.0000

            TOTAL IN =       13158.2041              TOTAL IN =        2352.5825

          OUT:                                     OUT:
          ----                                     ----
             STORAGE =        8432.4473               STORAGE =           0.0000
       CONSTANT HEAD =        1121.4634         CONSTANT HEAD =         406.3865
       RIVER LEAKAGE =        3604.2866         RIVER LEAKAGE =        1946.1938

           TOTAL OUT =       13158.1973             TOTAL OUT =        2352.5803

            IN - OUT =       6.8359E-03              IN - OUT =       2.1973E-03

 PERCENT DISCREPANCY =           0.00     PERCENT DISCREPANCY =           0.00






         TIME SUMMARY AT END OF TIME STEP    2 IN STRESS PERIOD    3
                    SECONDS     MINUTES      HOURS       DAYS        YEARS
                    -----------------------------------------------------------
   TIME STEP LENGTH  43200.      720.00      12.000     0.50000     1.36893E-03
 STRESS PERIOD TIME  86400.      1440.0      24.000      1.0000     2.73785E-03
         TOTAL TIME 6.04800E+05  10080.      168.00      7.0000     1.91650E-02
1
 
 SOLVING FOR HEAD 

 OUTPUT CONTROL FOR STRESS PERIOD    3   TIME STEP    3
    SAVE HEAD FOR ALL LAYERS
    SAVE DRAWDOWN FOR ALL LAYERS
    SAVE BUDGET
    PRINT HEAD FOR ALL LAYERS
    PRINT BUDGET
 UBDSV1 SAVING "         STORAGE" ON UNIT  53 AT TIME STEP  3, STRESS PERIOD   3
 UBDSV2 SAVING "   CONSTANT HEAD" ON UNIT  53 AT TIME STEP  3, STRESS PERIOD   3
 UBDSV1 SAVING "FLOW RIGHT FACE " ON UNIT  53 AT TIME STEP  3, STRESS PERIOD   3
 UBDSV1 SAVING "FLOW FRONT FACE " ON UNIT  53 AT TIME STEP  3, STRESS PERIOD   3
1
              HEAD IN LAYER   1 AT END OF TIME STEP   3 IN STRESS PERIOD    3
  ---------------------------------------------------------------------------

            1           2           3           4           5           6           7           8           9          10
           11          12          13          14          15          16          17          18          19          20
           21          22          23          24          25
 ........................................................................................................................
   1    2.000       2.149       2.294       2.429       2.547       2.636       2.681       2.663       2.560       2.348    
        2.015       1.564       1.033       1.564       2.015       2.348       2.560       2.663       2.681       2.636    
        2.547       2.429       2.294       2.149       2.000    
   2    2.000       2.149       2.294       2.429       2.547       2.636       2.681       2.663       2.560       2.348    
        2.015       1.564       1.033       1.564       2.015       2.348       2.560       2.663       2.681       2.636    
        2.547       2.429       2.294       2.149       2.000    
   3    2.000       2.149       2.294       2.429       2.547       2.636       2.681       2.663       2.560       2.348    
        2.015       1.564       1.033       1.564       2.015       2.348       2.560       2.663       2.681       2.636    
        2.547       2.429       2.294       2.149       2.000    
   4    2.000       2.149       2.294       2.429       2.547       2.636       2.681       2.663       2.560       2.348    
        2.015       1.564       1.033       1.564       2.015       2.348       2.560       2.663       2.681       2.636    
        2.547       2.429       2.294       2.149       2.000    
   5    2.000       2.149       2.294       2.429       2.547       2.636       2.681       2.663       2.560       2.348    
        2.015       1.564       1.033       1.564       2.015       2.348       2.560       2.663       2.681       2.636    
        2.547       2.429       2.294       2.149       2.000    
   6    2.000       2.149       2.294       2.429       2.547       2.636       2.681       2.663       2.560       2.348    
        2.015       1.564       1.033       1.564       2.015       2.348       2.560       2.663       2.681       2.636    
        2.547       2.429       2.294       2.149       2.000    
   7    2.000       2.149       2.294       2.429       2.547       2.636       2.681       2.663       2.560       2.348    
        2.015       1.564       1.033       1.564       2.015       2.348       2.560       2.663       2.681       2.636    
        2.547       2.429       2.294       2.149       2.000    
   8    2.000       2.149       2.294       2.429       2.547       2.636       2.681       2.663       2.560       2.348    
        2.015       1.564       1.033       1.564       2.015       2.348       2.560       2.663       2.681       2.636    
        2.547       2.429       2.294       2.149       2.000    
   9    2.000       2.149       2.294       2.429       2.547       2.636       2.681       2.663       2.560       2.348    
        2.015       1.564       1.033       1.564       2.015       2.348       2.560       2.663       2.681       2.636    
        2.547       2.429       2.294       2.149       2.000    
  10    2.000       2.149       2.294       2.429       2.547       2.636       2.681       2.663       2.560       2.348    
        2.015       1.564       1.033       1.564       2.015       2.348       2.560       2.663       2.681       2.636    
        2.547       2.429       2.294       2.149       2.000    
  11    2.000       2.149       2.294       2.429       2.547       2.636       2.681       2.663       2.560       2.348    
        2.015       1.564       1.033       1.564       2.015       2.348       2.560       2.663       2.681       2.636    
        2.547       2.429       2.294       2.149       2.000    
  12    2.000       2.149       2.294       2.429       2.547       2.636       2.681       2.663       2.560       2.348    
        2.015       1.564       1.033       1.564       2.015       2.348       2.560       2.663       2.681       2.636    
        2.547       2.429       2.294       2.149       2.000    
  13    2.000       2.149       2.294       2.429       2.547       2.636       2.681       2.663       2.560       2.348    
        2.015       1.564       1.033       1.564       2.015       2.348       2.560       2.663       2.681       2.636    
        2.547       2.429       2.294       2.149       2.000    
  14    2.000       2.149       2.294       2.429       2.547       2.636       2.681       2.663       2.560       2.348    
        2.015       1.564       1.033       1.564       2.015       2.348       2.560       2.663       2.681       2.636    
        2.547       2.429       2.294       2.149       2.000    
  15    2.000       2.149       2.294       2.429       2.547       2.636       2.681       2.663       2.560       2.348    
        2.015       1.564       1.033       1.564       2.015       2.348       2.560       2.663       2.681       2.636    
        2.547       2.429       2.294       2.149       2.000    
  16    2.000       2.149       2.294       2.429       2.547       2.636       2.681       2.663       2.560       2.348    
        2.015       1.564       1.033       1.564       2.015       2.348       2.560       2.663       2.681       2.636    
        2.547       2.429       2.294       2.149       2.000    
  17    2.000       2.149       2.294       2.429       2.547       2.636       2.681       2.663       2.560       2.348    
        2.015       1.564       1.033       1.564       2.015       2.348       2.560       2.663       2.681       2.636    
        2.547       2.429       2.294       2.149       2.000    
  18    2.000       2.149       2.294       2.429       2.547       2.636       2.681       2.663       2.560       2.348    
        2.015       1.564       1.033       1.564       2.015       2.348       2.560       2.663       2.681       2.636    
        2.547       2.429       2.294       2.149       2.000    
  19    2.000       2.149       2.294       2.429       2.547       2.636       2.681       2.663       2.560       2.348    
        2.015       1.564       1.033       1.564       2.015       2.348       2.560       2.663       2.681       2.636    
        2.547       2.429       2.294       2.149       2.000    
  20    2.000       2.149       2.294       2.429       2.547       2.636       2.681       2.663       2.560       2.348    
        2.015       1.564       1.033       1.564       2.015       2.348       2.560       2.663       2.681       2.636    
        2.547       2.429       2.294       2.149       2.000    
  21    2.000       2.149       2.294       2.429       2.547       2.636       2.681       2.663       2.560       2.348    
        2.015       1.564       1.033       1.564       2.015       2.348       2.560       2.663       2.681       2.636    
        2.547       2.429       2.294       2.149       2.000    
  22    2.000       2.149       2.294       2.429       2.547       2.636       2.681       2.663       2.560       2.348    
        2.015       1.564       1.033       1.564       2.015       2.348       2.560       2.663       2.681       2.636    
        2.547       2.429       2.294       2.149       2.000    
  23    2.000       2.149       2.294       2.429       2.547       2.636       2.681       2.663       2.560       2.348    
        2.015       1.564       1.033       1.564       2.015       2.348       2.560       2.663       2.681       2.636    
        2.547       2.429       2.294       2.149       2.000    
  24    2.000       2.149       2.294       2.429       2.547       2.636       2.681       2.663       2.560       2.348    
        2.015       1.564       1.033       1.564       2.015       2.348       2.560       2.663       2.681       2.636    
        2.547       2.429       2.294       2.149       2.000    
  25    2.000       2.149       2.294       2.429       2.547       2.636       2.681       2.663       2.560       2.348    
        2.015       1.564       1.033       1.564       2.015       2.348       2.560       2.663       2.681       2.636    
        2.547       2.429       2.294       2.149       2.000    

 HEAD WILL BE SAVED ON UNIT   51 AT END OF TIME STEP    3, STRESS PERIOD    3

 DRAWDOWN WILL BE SAVED ON UNIT   52 AT END OF TIME STEP    3, STRESS PERIOD    3
1
  VOLUMETRIC BUDGET FOR ENTIRE MODEL AT END OF TIME STEP    3, STRESS PERIOD   3
  ------------------------------------------------------------------------------

     CUMULATIVE VOLUMES      L**3       RATES FOR THIS TIME STEP      L**3/T
     ------------------                 ------------------------

           IN:                                      IN:
           ---                                      ---
             STORAGE =        4683.0791               STORAGE =        1706.5851
       CONSTANT HEAD =         436.8832         CONSTANT HEAD =           0.0000
       RIVER LEAKAGE =        8891.5342         RIVER LEAKAGE =           0.0000

            TOTAL IN =       14011.4961              TOTAL IN =        1706.5851

          OUT:                                     OUT:
          ----                                     ----
             STORAGE =        8432.4473               STORAGE =           0.0000
       CONSTANT HEAD =        1307.9785         CONSTANT HEAD =         373.0302
       RIVER LEAKAGE =        4271.0635         RIVER LEAKAGE =        1333.5533

           TOTAL OUT =       14011.4893             TOTAL OUT =        1706.5835

            IN - OUT =       6.8359E-03              IN - OUT =       1.5869E-03

 PERCENT DISCREPANCY =           0.00     PERCENT DISCREPANCY =           0.00






         TIME SUMMARY AT END OF TIME STEP    3 IN STRESS PERIOD    3
                    SECONDS     MINUTES      HOURS       DAYS        YEARS
                    -----------------------------------------------------------
   TIME STEP LENGTH  43200.      720.00      12.000     0.50000     1.36893E-03
 STRESS PERIOD TIME 1.29600E+05  2160.0      36.000      1.5000     4.10678E-03
         TOTAL TIME 6.48000E+05  10800.      180.00      7.5000     2.05339E-02
1
 
 SOLVING FOR HEAD 

 OUTPUT CONTROL FOR STRESS PERIOD    3   TIME STEP    4
    SAVE HEAD FOR ALL LAYERS
    SAVE DRAWDOWN FOR ALL LAYERS
    SAVE BUDGET
    PRINT HEAD FOR ALL LAYERS
    PRINT BUDGET
 UBDSV1 SAVING "         STORAGE" ON UNIT  53 AT TIME STEP  4, STRESS PERIOD   3
 UBDSV2 SAVING "   CONSTANT HEAD" ON UNIT  53 AT TIME STEP  4, STRESS PERIOD   3
 UBDSV1 SAVING "FLOW RIGHT FACE " ON UNIT  53 AT TIME STEP  4, STRESS PERIOD   3
 UBDSV1 SAVING "FLOW FRONT FACE " ON UNIT  53 AT TIME STEP  4, STRESS PERIOD   3
1
              HEAD IN LAYER   1 AT END OF TIME STEP   4 IN STRESS PERIOD    3
  ---------------------------------------------------------------------------

            1           2           3           4           5           6           7           8           9          10
           11          12          13          14          15          16          17          18          19          20
           21          22          23          24          25
 ........................................................................................................................
   1    2.000       2.128       2.249       2.357       2.440       2.490       2.493       2.435       2.304       2.091    
        1.797       1.432       1.026       1.432       1.797       2.091       2.304       2.435       2.493       2.490    
        2.440       2.357       2.249       2.128       2.000    
   2    2.000       2.128       2.249       2.357       2.440       2.490       2.493       2.435       2.304       2.091    
        1.797       1.432       1.026       1.432       1.797       2.091       2.304       2.435       2.493       2.490    
        2.440       2.357       2.249       2.128       2.000    
   3    2.000       2.128       2.249       2.357       2.440       2.490       2.493       2.435       2.304       2.091    
        1.797       1.432       1.026       1.432       1.797       2.091       2.304       2.435       2.493       2.490    
        2.440       2.357       2.249       2.128       2.000    
   4    2.000       2.128       2.249       2.357       2.440       2.490       2.493       2.435       2.304       2.091    
        1.797       1.432       1.026       1.432       1.797       2.091       2.304       2.435       2.493       2.490    
        2.440       2.357       2.249       2.128       2.000    
   5    2.000       2.128       2.249       2.357       2.440       2.490       2.493       2.435       2.304       2.091    
        1.797       1.432       1.026       1.432       1.797       2.091       2.304       2.435       2.493       2.490    
        2.440       2.357       2.249       2.128       2.000    
   6    2.000       2.128       2.249       2.357       2.440       2.490       2.493       2.435       2.304       2.091    
        1.797       1.432       1.026       1.432       1.797       2.091       2.304       2.435       2.493       2.490    
        2.440       2.357       2.249       2.128       2.000    
   7    2.000       2.128       2.249       2.357       2.440       2.490       2.493       2.435       2.304       2.091    
        1.797       1.432       1.026       1.432       1.797       2.091       2.304       2.435       2.493       2.490    
        2.440       2.357       2.249       2.128       2.000    
   8    2.000       2.128       2.249       2.357       2.440       2.490       2.493       2.435       2.304       2.091    
        1.797       1.432       1.026       1.432       1.797       2.091       2.304       2.435       2.493       2.490    
        2.440       2.357       2.249       2.128       2.000    
   9    2.000       2.128       2.249       2.357       2.440       2.490       2.493       2.435       2.304       2.091    
        1.797       1.432       1.026       1.432       1.797       2.091       2.304       2.435       2.493       2.490    
        2.440       2.357       2.249       2.128       2.000    
  10    2.000       2.128       2.249       2.357       2.440       2.490       2.493       2.435       2.304       2.091    
        1.797       1.432       1.026       1.432       1.797       2.091       2.304       2.435       2.493       2.490    
        2.440       2.357       2.249       2.128       2.000    
  11    2.000       2.128       2.249       2.357       2.440       2.490       2.493       2.435       2.304       2.091    
        1.797       1.432       1.026       1.432       1.797       2.091       2.304       2.435       2.493       2.490    
        2.440       2.357       2.249       2.128       2.000    
  12    2.000       2.128       2.249       2.357       2.440       2.490       2.493       2.435       2.304       2.091    
        1.797       1.432       1.026       1.432       1.797       2.091       2.304       2.435       2.493       2.490    
        2.440       2.357       2.249       2.128       2.000    
  13    2.000       2.128       2.249       2.357       2.440       2.490       2.493       2.435       2.304       2.091    
        1.797       1.432       1.026       1.432       1.797       2.091       2.304       2.435       2.493       2.490    
        2.440       2.357       2.249       2.128       2.000    
  14    2.000       2.128       2.249       2.357       2.440       2.490       2.493       2.435       2.304       2.091    
        1.797       1.432       1.026       1.432       1.797       2.091       2.304       2.435       2.493       2.490    
        2.440       2.357       2.249       2.128       2.000    
  15    2.000       2.128       2.249       2.357       2.440       2.490       2.493       2.435       2.304       2.091    
        1.797       1.432       1.026       1.432       1.797       2.091       2.304       2.435       2.493       2.490    
        2.440       2.357       2.249       2.128       2.000    
  16    2.000       2.128       2.249       2.357       2.440       2.490       2.493       2.435       2.304       2.091    
        1.797       1.432       1.026       1.432       1.797       2.091       2.304       2.435       2.493       2.490    
        2.440       2.357       2.249       2.128       2.000    
  17    2.000       2.128       2.249       2.357       2.440       2.490       2.493       2.435       2.304       2.091    
        1.797       1.432       1.026       1.432       1.797       2.091       2.304       2.435       2.493       2.490    
        2.440       2.357       2.249       2.128       2.000    
  18    2.000       2.128       2.249       2.357       2.440       2.490       2.493       2.435       2.304       2.091    
        1.797       1.432       1.026       1.432       1.797       2.091       2.304       2.435       2.493       2.490    
        2.440       2.357       2.249       2.128       2.000    
  19    2.000       2.128       2.249       2.357       2.440       2.490       2.493       2.435       2.304       2.091    
        1.797       1.432       1.026       1.432       1.797       2.091       2.304       2.435       2.493       2.490    
        2.440       2.357       2.249       2.128       2.000    
  20    2.000       2.128       2.249       2.357       2.440       2.490       2.493       2.435       2.304       2.091    
        1.797       1.432       1.026       1.432       1.797       2.091       2.304       2.435       2.493       2.490    
        2.440       2.357       2.249       2.128       2.000    
  21    2.000       2.128       2.249       2.357       2.440       2.490       2.493       2.435       2.304       2.091    
        1.797       1.432       1.026       1.432       1.797       2.091       2.304       2.435       2.493       2.490    
        2.440       2.357       2.249       2.128       2.000    
  22    2.000       2.128       2.249       2.357       2.440       2.490       2.493       2.435       2.304       2.091    
        1.797       1.432       1.026       1.432       1.797       2.091       2.304       2.435       2.493       2.490    
        2.440       2.357       2.249       2.128       2.000    
  23    2.000       2.128       2.249       2.357       2.440       2.490       2.493       2.435       2.304       2.091    
        1.797       1.432       1.026       1.432       1.797       2.091       2.304       2.435       2.493       2.490    
        2.440       2.357       2.249       2.128       2.000    
  24    2.000       2.128       2.249       2.357       2.440       2.490       2.493       2.435       2.304       2.091    
        1.797       1.432       1.026       1.432       1.797       2.091       2.304       2.435       2.493       2.490    
        2.440       2.357       2.249       2.128       2.000    
  25    2.000       2.128       2.249       2.357       2.440       2.490       2.493       2.435       2.304       2.091    
        1.797       1.432       1.026       1.432       1.797       2.091       2.304       2.435       2.493       2.490    
        2.440       2.357       2.249       2.128       2.000    

 HEAD WILL BE SAVED ON UNIT   51 AT END OF TIME STEP    4, STRESS PERIOD    3

 DRAWDOWN WILL BE SAVED ON UNIT   52 AT END OF TIME STEP    4, STRESS PERIOD    3
1
  VOLUMETRIC BUDGET FOR ENTIRE MODEL AT END OF TIME STEP    4, STRESS PERIOD   3
  ------------------------------------------------------------------------------

     CUMULATIVE VOLUMES      L**3       RATES FOR THIS TIME STEP      L**3/T
     ------------------                 ------------------------

           IN:                                      IN:
           ---                                      ---
             STORAGE =        5353.2427               STORAGE =        1340.3271
       CONSTANT HEAD =         436.8832         CONSTANT HEAD =           0.0000
       RIVER LEAKAGE =        8891.5342         RIVER LEAKAGE =           0.0000

            TOTAL IN =       14681.6602              TOTAL IN =        1340.3271

          OUT:                                     OUT:
          ----                                     ----
             STORAGE =        8432.4473               STORAGE =           0.0000
       CONSTANT HEAD =        1468.1199         CONSTANT HEAD =         320.2828
       RIVER LEAKAGE =        4781.0854         RIVER LEAKAGE =        1020.0441

           TOTAL OUT =       14681.6523             TOTAL OUT =        1340.3269

            IN - OUT =       7.8125E-03              IN - OUT =       2.4414E-04

 PERCENT DISCREPANCY =           0.00     PERCENT DISCREPANCY =           0.00






         TIME SUMMARY AT END OF TIME STEP    4 IN STRESS PERIOD    3
                    SECONDS     MINUTES      HOURS       DAYS        YEARS
                    -----------------------------------------------------------
   TIME STEP LENGTH  43200.      720.00      12.000     0.50000     1.36893E-03
 STRESS PERIOD TIME 1.72800E+05  2880.0      48.000      2.0000     5.47570E-03
         TOTAL TIME 6.91200E+05  11520.      192.00      8.0000     2.19028E-02
1
 
 SOLVING FOR HEAD 

 OUTPUT CONTROL FOR STRESS PERIOD    3   TIME STEP    5
    SAVE HEAD FOR ALL LAYERS
    SAVE DRAWDOWN FOR ALL LAYERS
    SAVE BUDGET
    PRINT HEAD FOR ALL LAYERS
    PRINT BUDGET
 UBDSV1 SAVING "         STORAGE" ON UNIT  53 AT TIME STEP  5, STRESS PERIOD   3
 UBDSV2 SAVING "   CONSTANT HEAD" ON UNIT  53 AT TIME STEP  5, STRESS PERIOD   3
 UBDSV1 SAVING "FLOW RIGHT FACE " ON UNIT  53 AT TIME STEP  5, STRESS PERIOD   3
 UBDSV1 SAVING "FLOW FRONT FACE " ON UNIT  53 AT TIME STEP  5, STRESS PERIOD   3
1
              HEAD IN LAYER   1 AT END OF TIME STEP   5 IN STRESS PERIOD    3
  ---------------------------------------------------------------------------

            1           2           3           4           5           6           7           8           9          10
           11          12          13          14          15          16          17          18          19          20
           21          22          23          24          25
 ........................................................................................................................
   1    2.000       2.103       2.199       2.278       2.332       2.351       2.326       2.248       2.111       1.911    
        1.653       1.350       1.021       1.350       1.653       1.911       2.111       2.248       2.326       2.351    
        2.332       2.278       2.199       2.103       2.000    
   2    2.000       2.103       2.199       2.278       2.332       2.351       2.326       2.248       2.111       1.911    
        1.653       1.350       1.021       1.350       1.653       1.911       2.111       2.248       2.326       2.351    
        2.332       2.278       2.199       2.103       2.000    
   3    2.000       2.103       2.199       2.278       2.332       2.351       2.326       2.248       2.111       1.911    
        1.653       1.350       1.021       1.350       1.653       1.911       2.111       2.248       2.326       2.351    
        2.332       2.278       2.199       2.103       2.000    
   4    2.000       2.103       2.199       2.278       2.332       2.351       2.326       2.248       2.111       1.911    
        1.653       1.350       1.021       1.350       1.653       1.911       2.111       2.248       2.326       2.351    
        2.332       2.278       2.199       2.103       2.000    
   5    2.000       2.103       2.199       2.278       2.332       2.351       2.326       2.248       2.111       1.911    
        1.653       1.350       1.021       1.350       1.653       1.911       2.111       2.248       2.326       2.351    
        2.332       2.278       2.199       2.103       2.000    
   6    2.000       2.103       2.199       2.278       2.332       2.351       2.326       2.248       2.111       1.911    
        1.653       1.350       1.021       1.350       1.653       1.911       2.111       2.248       2.326       2.351    
        2.332       2.278       2.199       2.103       2.000    
   7    2.000       2.103       2.199       2.278       2.332       2.351       2.326       2.248       2.111       1.911    
        1.653       1.350       1.021       1.350       1.653       1.911       2.111       2.248       2.326       2.351    
        2.332       2.278       2.199       2.103       2.000    
   8    2.000       2.103       2.199       2.278       2.332       2.351       2.326       2.248       2.111       1.911    
        1.653       1.350       1.021       1.350       1.653       1.911       2.111       2.248       2.326       2.351    
        2.332       2.278       2.199       2.103       2.000    
   9    2.000       2.103       2.199       2.278       2.332       2.351       2.326       2.248       2.111       1.911    
        1.653       1.350       1.021       1.350       1.653       1.911       2.111       2.248       2.326       2.351    
        2.332       2.278       2.199       2.103       2.000    
  10    2.000       2.103       2.199       2.278       2.332       2.351       2.326       2.248       2.111       1.911    
        1.653       1.350       1.021       1.350       1.653       1.911       2.111       2.248       2.326       2.351    
        2.332       2.278       2.199       2.103       2.000    
  11    2.000       2.103       2.199       2.278       2.332       2.351       2.326       2.248       2.111       1.911    
        1.653       1.350       1.021       1.350       1.653       1.911       2.111       2.248       2.326       2.351    
        2.332       2.278       2.199       2.103       2.000    
  12    2.000       2.103       2.199       2.278       2.332       2.351       2.326       2.248       2.111       1.911    
        1.653       1.350       1.021       1.350       1.653       1.911       2.111       2.248       2.326       2.351    
        2.332       2.278       2.199       2.103       2.000    
  13    2.000       2.103       2.199       2.278       2.332       2.351       2.326       2.248       2.111       1.911    
        1.653       1.350       1.021       1.350       1.653       1.911       2.111       2.248       2.326       2.351    
        2.332       2.278       2.199       2.103       2.000    
  14    2.000       2.103       2.199       2.278       2.332       2.351       2.326       2.248       2.111       1.911    
        1.653       1.350       1.021       1.350       1.653       1.911       2.111       2.248       2.326       2.351    
        2.332       2.278       2.199       2.103       2.000    
  15    2.000       2.103       2.199       2.278       2.332       2.351       2.326       2.248       2.111       1.911    
        1.653       1.350       1.021       1.350       1.653       1.911       2.111       2.248       2.326       2.351    
        2.332       2.278       2.199       2.103       2.000    
  16    2.000       2.103       2.199       2.278       2.332       2.351       2.326       2.248       2.111       1.911    
        1.653       1.350       1.021       1.350       1.653       1.911       2.111       2.248       2.326       2.351    
        2.332       2.278       2.199       2.103       2.000    
  17    2.000       2.103       2.199       2.278       2.332       2.351       2.326       2.248       2.111       1.911    
        1.653       1.350       1.021       1.350       1.653       1.911       2.111       2.248       2.326       2.351    
        2.332       2.278       2.199       2.103       2.000    
  18    2.000       2.103       2.199       2.278       2.332       2.351       2.326       2.248       2.111       1.911    
        1.653       1.350       1.021       1.350       1.653       1.911       2.111       2.248       2.326       2.351    
        2.332       2.278       2.199       2.103       2.000    
  19    2.000       2.103       2.199       2.278       2.332       2.351       2.326       2.248       2.111       1.911    
        1.653       1.350       1.021       1.350       1.653       1.911       2.111       2.248       2.326       2.351    
        2.332       2.278       2.199       2.103       2.000    
  20    2.000       2.103       2.199       2.278       2.332       2.351       2.326       2.248       2.111       1.911    
        1.653       1.350       1.021       1.350       1.653       1.911       2.111       2.248       2.326       2.351    
        2.332       2.278       2.199       2.103       2.000    
  21    2.000       2.103       2.199       2.278       2.332       2.351       2.326       2.248       2.111       1.911    
        1.653       1.350       1.021       1.350       1.653       1.911       2.111       2.248       2.326       2.351    
        2.332       2.278       2.199       2.103       2.000    
  22    2.000       2.103       2.199       2.278       2.332       2.351       2.326       2.248       2.111       1.911    
        1.653       1.350       1.021       1.350       1.653       1.911       2.111       2.248       2.326       2.351    
        2.332       2.278       2.199       2.103       2.000    
  23    2.000       2.103       2.199       2.278       2.332       2.351       2.326       2.248       2.111       1.911    
        1.653       1.350       1.021       1.350       1.653       1.911       2.111       2.248       2.326       2.351    
        2.332       2.278       2.199       2.103       2.000    
  24    2.000       2.103       2.199       2.278       2.332       2.351       2.326       2.248       2.111       1.911    
        1.653       1.350       1.021       1.350       1.653       1.911       2.111       2.248       2.326       2.351    
        2.332       2.278       2.199       2.103       2.000    
  25    2.000       2.103       2.199       2.278       2.332       2.351       2.326       2.248       2.111       1.911    
        1.653       1.350       1.021       1.350       1.653       1.911       2.111       2.248       2.326       2.351    
        2.332       2.278       2.199       2.103       2.000    

 HEAD WILL BE SAVED ON UNIT   51 AT END OF TIME STEP    5, STRESS PERIOD    3

 DRAWDOWN WILL BE SAVED ON UNIT   52 AT END OF TIME STEP    5, STRESS PERIOD    3
1
  VOLUMETRIC BUDGET FOR ENTIRE MODEL AT END OF TIME STEP    5, STRESS PERIOD   3
  ------------------------------------------------------------------------------

     CUMULATIVE VOLUMES      L**3       RATES FOR THIS TIME STEP      L**3/T
     ------------------                 ------------------------

           IN:                                      IN:
           ---                                      ---
             STORAGE =        5895.3384               STORAGE =        1084.1910
       CONSTANT HEAD =         436.8832         CONSTANT HEAD =           0.0000
       RIVER LEAKAGE =        8891.5342         RIVER LEAKAGE =           0.0000

            TOTAL IN =       15223.7559              TOTAL IN =        1084.1910

          OUT:                                     OUT:
          ----                                     ----
             STORAGE =        8432.4473               STORAGE =           0.0000
       CONSTANT HEAD =        1597.3004         CONSTANT HEAD =         258.3611
       RIVER LEAKAGE =        5193.9995         RIVER LEAKAGE =         825.8279

           TOTAL OUT =       15223.7480             TOTAL OUT =        1084.1890

            IN - OUT =       7.8125E-03              IN - OUT =       2.0752E-03

 PERCENT DISCREPANCY =           0.00     PERCENT DISCREPANCY =           0.00






         TIME SUMMARY AT END OF TIME STEP    5 IN STRESS PERIOD    3
                    SECONDS     MINUTES      HOURS       DAYS        YEARS
                    -----------------------------------------------------------
   TIME STEP LENGTH  43200.      720.00      12.000     0.50000     1.36893E-03
 STRESS PERIOD TIME 2.16000E+05  3600.0      60.000      2.5000     6.84463E-03
         TOTAL TIME 7.34400E+05  12240.      204.00      8.5000     2.32717E-02
1
 
 SOLVING FOR HEAD 

 OUTPUT CONTROL FOR STRESS PERIOD    3   TIME STEP    6
    SAVE HEAD FOR ALL LAYERS
    SAVE DRAWDOWN FOR ALL LAYERS
    SAVE BUDGET
    PRINT HEAD FOR ALL LAYERS
    PRINT BUDGET
 UBDSV1 SAVING "         STORAGE" ON UNIT  53 AT TIME STEP  6, STRESS PERIOD   3
 UBDSV2 SAVING "   CONSTANT HEAD" ON UNIT  53 AT TIME STEP  6, STRESS PERIOD   3
 UBDSV1 SAVING "FLOW RIGHT FACE " ON UNIT  53 AT TIME STEP  6, STRESS PERIOD   3
 UBDSV1 SAVING "FLOW FRONT FACE " ON UNIT  53 AT TIME STEP  6, STRESS PERIOD   3
1
              HEAD IN LAYER   1 AT END OF TIME STEP   6 IN STRESS PERIOD    3
  ---------------------------------------------------------------------------

            1           2           3           4           5           6           7           8           9          10
           11          12          13          14          15          16          17          18          19          20
           21          22          23          24          25
 ........................................................................................................................
   1    2.000       2.078       2.148       2.202       2.231       2.228       2.185       2.098       1.962       1.778    
        1.552       1.294       1.017       1.294       1.552       1.778       1.962       2.098       2.185       2.228    
        2.231       2.202       2.148       2.078       2.000    
   2    2.000       2.078       2.148       2.202       2.231       2.228       2.185       2.098       1.962       1.778    
        1.552       1.294       1.017       1.294       1.552       1.778       1.962       2.098       2.185       2.228    
        2.231       2.202       2.148       2.078       2.000    
   3    2.000       2.078       2.148       2.202       2.231       2.228       2.185       2.098       1.962       1.778    
        1.552       1.294       1.017       1.294       1.552       1.778       1.962       2.098       2.185       2.228    
        2.231       2.202       2.148       2.078       2.000    
   4    2.000       2.078       2.148       2.202       2.231       2.228       2.185       2.098       1.962       1.778    
        1.552       1.294       1.017       1.294       1.552       1.778       1.962       2.098       2.185       2.228    
        2.231       2.202       2.148       2.078       2.000    
   5    2.000       2.078       2.148       2.202       2.231       2.228       2.185       2.098       1.962       1.778    
        1.552       1.294       1.017       1.294       1.552       1.778       1.962       2.098       2.185       2.228    
        2.231       2.202       2.148       2.078       2.000    
   6    2.000       2.078       2.148       2.202       2.231       2.228       2.185       2.098       1.962       1.778    
        1.552       1.294       1.017       1.294       1.552       1.778       1.962       2.098       2.185       2.228    
        2.231       2.202       2.148       2.078       2.000    
   7    2.000       2.078       2.148       2.202       2.231       2.228       2.185       2.098       1.962       1.778    
        1.552       1.294       1.017       1.294       1.552       1.778       1.962       2.098       2.185       2.228    
        2.231       2.202       2.148       2.078       2.000    
   8    2.000       2.078       2.148       2.202       2.231       2.228       2.185       2.098       1.962       1.778    
        1.552       1.294       1.017       1.294       1.552       1.778       1.962       2.098       2.185       2.228    
        2.231       2.202       2.148       2.078       2.000    
   9    2.000       2.078       2.148       2.202       2.231       2.228       2.185       2.098       1.962       1.778    
        1.552       1.294       1.017       1.294       1.552       1.778       1.962       2.098       2.185       2.228    
        2.231       2.202       2.148       2.078       2.000    
  10    2.000       2.078       2.148       2.202       2.231       2.228       2.185       2.098       1.962       1.778    
        1.552       1.294       1.017       1.294       1.552       1.778       1.962       2.098       2.185       2.228    
        2.231       2.202       2.148       2.078       2.000    
  11    2.000       2.078       2.148       2.202       2.231       2.228       2.185       2.098       1.962       1.778    
        1.552       1.294       1.017       1.294       1.552       1.778       1.962       2.098       2.185       2.228    
        2.231       2.202       2.148       2.078       2.000    
  12    2.000       2.078       2.148       2.202       2.231       2.228       2.185       2.098       1.962       1.778    
        1.552       1.294       1.017       1.294       1.552       1.778       1.962       2.098       2.185       2.228    
        2.231       2.202       2.148       2.078       2.000    
  13    2.000       2.078       2.148       2.202       2.231       2.228       2.185       2.098       1.962       1.778    
        1.552       1.294       1.017       1.294       1.552       1.778       1.962       2.098       2.185       2.228    
        2.231       2.202       2.148       2.078       2.000    
  14    2.000       2.078       2.148       2.202       2.231       2.228       2.185       2.098       1.962       1.778    
        1.552       1.294       1.017       1.294       1.552       1.778       1.962       2.098       2.185       2.228    
        2.231       2.202       2.148       2.078       2.000    
  15    2.000       2.078       2.148       2.202       2.231       2.228       2.185       2.098       1.962       1.778    
        1.552       1.294       1.017       1.294       1.552       1.778       1.962       2.098       2.185       2.228    
        2.231       2.202       2.148       2.078       2.000    
  16    2.000       2.078       2.148       2.202       2.231       2.228       2.185       2.098       1.962       1.778    
        1.552       1.294       1.017       1.294       1.552       1.778       1.962       2.098       2.185       2.228    
        2.231       2.202       2.148       2.078       2.000    
  17    2.000       2.078       2.148       2.202       2.231       2.228       2.185       2.098       1.962       1.778    
        1.552       1.294       1.017       1.294       1.552       1.778       1.962       2.098       2.185       2.228    
        2.231       2.202       2.148       2.078       2.000    
  18    2.000       2.078       2.148       2.202       2.231       2.228       2.185       2.098       1.962       1.778    
        1.552       1.294       1.017       1.294       1.552       1.778       1.962       2.098       2.185       2.228    
        2.231       2.202       2.148       2.078       2.000    
  19    2.000       2.078       2.148       2.202       2.231       2.228       2.185       2.098       1.962       1.778    
        1.552       1.294       1.017       1.294       1.552       1.778       1.962       2.098       2.185       2.228    
        2.231       2.202       2.148       2.078       2.000    
  20    2.000       2.078       2.148       2.202       2.231       2.228       2.185       2.098       1.962       1.778    
        1.552       1.294       1.017       1.294       1.552       1.778       1.962       2.098       2.185       2.228    
        2.231       2.202       2.148       2.078       2.000    
  21    2.000       2.078       2.148       2.202       2.231       2.228       2.185       2.098       1.962       1.778    
        1.552       1.294       1.017       1.294       1.552       1.778       1.962       2.098       2.185       2.228    
        2.231       2.202       2.148       2.078       2.000    
  22    2.000       2.078       2.148       2.202       2.231       2.228       2.185       2.098       1.962       1.778    
        1.552       1.294       1.017       1.294       1.552       1.778       1.962       2.098       2.185       2.228    
        2.231       2.202       2.148       2.078       2.000    
  23    2.000       2.078       2.148       2.202       2.231       2.228       2.185       2.098       1.962       1.778    
        1.552       1.294       1.017       1.294       1.552       1.778       1.962       2.098       2.185       2.228    
        2.231       2.202       2.148       2.078       2.000    
  24    2.000       2.078       2.148       2.202       2.231       2.228       2.185       2.098       1.962       1.778    
        1.552       1.294       1.017       1.294       1.552       1.778       1.962       2.098       2.185       2.228    
        2.231       2.202       2.148       2.078       2.000    
  25    2.000       2.078       2.148       2.202       2.231       2.228       2.185       2.098       1.962       1.778    
        1.552       1.294       1.017       1.294       1.552       1.778       1.962       2.098       2.185       2.228    
        2.231       2.202       2.148       2.078       2.000    

 HEAD WILL BE SAVED ON UNIT   51 AT END OF TIME STEP    6, STRESS PERIOD    3

 DRAWDOWN WILL BE SAVED ON UNIT   52 AT END OF TIME STEP    6, STRESS PERIOD    3
1
  VOLUMETRIC BUDGET FOR ENTIRE MODEL AT END OF TIME STEP    6, STRESS PERIOD   3
  ------------------------------------------------------------------------------

     CUMULATIVE VOLUMES      L**3       RATES FOR THIS TIME STEP      L**3/T
     ------------------                 ------------------------

           IN:                                      IN:
           ---                                      ---
             STORAGE =        6339.1514               STORAGE =         887.6259
       CONSTANT HEAD =         436.8832         CONSTANT HEAD =           0.0000
       RIVER LEAKAGE =        8891.5342         RIVER LEAKAGE =           0.0000

            TOTAL IN =       15667.5684              TOTAL IN =         887.6259

          OUT:                                     OUT:
          ----                                     ----
             STORAGE =        8432.4473               STORAGE =           0.0000
       CONSTANT HEAD =        1694.8519         CONSTANT HEAD =         195.1031
       RIVER LEAKAGE =        5540.2607         RIVER LEAKAGE =         692.5220

           TOTAL OUT =       15667.5596             TOTAL OUT =         887.6251

            IN - OUT =       8.7891E-03              IN - OUT =       8.5449E-04

 PERCENT DISCREPANCY =           0.00     PERCENT DISCREPANCY =           0.00






         TIME SUMMARY AT END OF TIME STEP    6 IN STRESS PERIOD    3
                    SECONDS     MINUTES      HOURS       DAYS        YEARS
                    -----------------------------------------------------------
   TIME STEP LENGTH  43200.      720.00      12.000     0.50000     1.36893E-03
 STRESS PERIOD TIME 2.59200E+05  4320.0      72.000      3.0000     8.21355E-03
         TOTAL TIME 7.77600E+05  12960.      216.00      9.0000     2.46407E-02
1
 
 SOLVING FOR HEAD 

 OUTPUT CONTROL FOR STRESS PERIOD    3   TIME STEP    7
    SAVE HEAD FOR ALL LAYERS
    SAVE DRAWDOWN FOR ALL LAYERS
    SAVE BUDGET
    PRINT HEAD FOR ALL LAYERS
    PRINT BUDGET
 UBDSV1 SAVING "         STORAGE" ON UNIT  53 AT TIME STEP  7, STRESS PERIOD   3
 UBDSV2 SAVING "   CONSTANT HEAD" ON UNIT  53 AT TIME STEP  7, STRESS PERIOD   3
 UBDSV1 SAVING "FLOW RIGHT FACE " ON UNIT  53 AT TIME STEP  7, STRESS PERIOD   3
 UBDSV1 SAVING "FLOW FRONT FACE " ON UNIT  53 AT TIME STEP  7, STRESS PERIOD   3
1
              HEAD IN LAYER   1 AT END OF TIME STEP   7 IN STRESS PERIOD    3
  ---------------------------------------------------------------------------

            1           2           3           4           5           6           7           8           9          10
           11          12          13          14          15          16          17          18          19          20
           21          22          23          24          25
 ........................................................................................................................
   1    2.000       2.054       2.101       2.132       2.141       2.121       2.067       1.976       1.845       1.677    
        1.477       1.252       1.015       1.252       1.477       1.677       1.845       1.976       2.067       2.121    
        2.141       2.132       2.101       2.054       2.000    
   2    2.000       2.054       2.101       2.132       2.141       2.121       2.067       1.976       1.845       1.677    
        1.477       1.252       1.015       1.252       1.477       1.677       1.845       1.976       2.067       2.121    
        2.141       2.132       2.101       2.054       2.000    
   3    2.000       2.054       2.101       2.132       2.141       2.121       2.067       1.976       1.845       1.677    
        1.477       1.252       1.015       1.252       1.477       1.677       1.845       1.976       2.067       2.121    
        2.141       2.132       2.101       2.054       2.000    
   4    2.000       2.054       2.101       2.132       2.141       2.121       2.067       1.976       1.845       1.677    
        1.477       1.252       1.015       1.252       1.477       1.677       1.845       1.976       2.067       2.121    
        2.141       2.132       2.101       2.054       2.000    
   5    2.000       2.054       2.101       2.132       2.141       2.121       2.067       1.976       1.845       1.677    
        1.477       1.252       1.015       1.252       1.477       1.677       1.845       1.976       2.067       2.121    
        2.141       2.132       2.101       2.054       2.000    
   6    2.000       2.054       2.101       2.132       2.141       2.121       2.067       1.976       1.845       1.677    
        1.477       1.252       1.015       1.252       1.477       1.677       1.845       1.976       2.067       2.121    
        2.141       2.132       2.101       2.054       2.000    
   7    2.000       2.054       2.101       2.132       2.141       2.121       2.067       1.976       1.845       1.677    
        1.477       1.252       1.015       1.252       1.477       1.677       1.845       1.976       2.067       2.121    
        2.141       2.132       2.101       2.054       2.000    
   8    2.000       2.054       2.101       2.132       2.141       2.121       2.067       1.976       1.845       1.677    
        1.477       1.252       1.015       1.252       1.477       1.677       1.845       1.976       2.067       2.121    
        2.141       2.132       2.101       2.054       2.000    
   9    2.000       2.054       2.101       2.132       2.141       2.121       2.067       1.976       1.845       1.677    
        1.477       1.252       1.015       1.252       1.477       1.677       1.845       1.976       2.067       2.121    
        2.141       2.132       2.101       2.054       2.000    
  10    2.000       2.054       2.101       2.132       2.141       2.121       2.067       1.976       1.845       1.677    
        1.477       1.252       1.015       1.252       1.477       1.677       1.845       1.976       2.067       2.121    
        2.141       2.132       2.101       2.054       2.000    
  11    2.000       2.054       2.101       2.132       2.141       2.121       2.067       1.976       1.845       1.677    
        1.477       1.252       1.015       1.252       1.477       1.677       1.845       1.976       2.067       2.121    
        2.141       2.132       2.101       2.054       2.000    
  12    2.000       2.054       2.101       2.132       2.141       2.121       2.067       1.976       1.845       1.677    
        1.477       1.252       1.015       1.252       1.477       1.677       1.845       1.976       2.067       2.121    
        2.141       2.132       2.101       2.054       2.000    
  13    2.000       2.054       2.101       2.132       2.141       2.121       2.067       1.976       1.845       1.677    
        1.477       1.252       1.015       1.252       1.477       1.677       1.845       1.976       2.067       2.121    
        2.141       2.132       2.101       2.054       2.000    
  14    2.000       2.054       2.101       2.132       2.141       2.121       2.067       1.976       1.845       1.677    
        1.477       1.252       1.015       1.252       1.477       1.677       1.845       1.976       2.067       2.121    
        2.141       2.132       2.101       2.054       2.000    
  15    2.000       2.054       2.101       2.132       2.141       2.121       2.067       1.976       1.845       1.677    
        1.477       1.252       1.015       1.252       1.477       1.677       1.845       1.976       2.067       2.121    
        2.141       2.132       2.101       2.054       2.000    
  16    2.000       2.054       2.101       2.132       2.141       2.121       2.067       1.976       1.845       1.677    
        1.477       1.252       1.015       1.252       1.477       1.677       1.845       1.976       2.067       2.121    
        2.141       2.132       2.101       2.054       2.000    
  17    2.000       2.054       2.101       2.132       2.141       2.121       2.067       1.976       1.845       1.677    
        1.477       1.252       1.015       1.252       1.477       1.677       1.845       1.976       2.067       2.121    
        2.141       2.132       2.101       2.054       2.000    
  18    2.000       2.054       2.101       2.132       2.141       2.121       2.067       1.976       1.845       1.677    
        1.477       1.252       1.015       1.252       1.477       1.677       1.845       1.976       2.067       2.121    
        2.141       2.132       2.101       2.054       2.000    
  19    2.000       2.054       2.101       2.132       2.141       2.121       2.067       1.976       1.845       1.677    
        1.477       1.252       1.015       1.252       1.477       1.677       1.845       1.976       2.067       2.121    
        2.141       2.132       2.101       2.054       2.000    
  20    2.000       2.054       2.101       2.132       2.141       2.121       2.067       1.976       1.845       1.677    
        1.477       1.252       1.015       1.252       1.477       1.677       1.845       1.976       2.067       2.121    
        2.141       2.132       2.101       2.054       2.000    
  21    2.000       2.054       2.101       2.132       2.141       2.121       2.067       1.976       1.845       1.677    
        1.477       1.252       1.015       1.252       1.477       1.677       1.845       1.976       2.067       2.121    
        2.141       2.132       2.101       2.054       2.000    
  22    2.000       2.054       2.101       2.132       2.141       2.121       2.067       1.976       1.845       1.677    
        1.477       1.252       1.015       1.252       1.477       1.677       1.845       1.976       2.067       2.121    
        2.141       2.132       2.101       2.054       2.000    
  23    2.000       2.054       2.101       2.132       2.141       2.121       2.067       1.976       1.845       1.677    
        1.477       1.252       1.015       1.252       1.477       1.677       1.845       1.976       2.067       2.121    
        2.141       2.132       2.101       2.054       2.000    
  24    2.000       2.054       2.101       2.132       2.141       2.121       2.067       1.976       1.845       1.677    
        1.477       1.252       1.015       1.252       1.477       1.677       1.845       1.976       2.067       2.121    
        2.141       2.132       2.101       2.054       2.000    
  25    2.000       2.054       2.101       2.132       2.141       2.121       2.067       1.976       1.845       1.677    
        1.477       1.252       1.015       1.252       1.477       1.677       1.845       1.976       2.067       2.121    
        2.141       2.132       2.101       2.054       2.000    

 HEAD WILL BE SAVED ON UNIT   51 AT END OF TIME STEP    7, STRESS PERIOD    3

 DRAWDOWN WILL BE SAVED ON UNIT   52 AT END OF TIME STEP    7, STRESS PERIOD    3
1
  VOLUMETRIC BUDGET FOR ENTIRE MODEL AT END OF TIME STEP    7, STRESS PERIOD   3
  ------------------------------------------------------------------------------

     CUMULATIVE VOLUMES      L**3       RATES FOR THIS TIME STEP      L**3/T
     ------------------                 ------------------------

           IN:                                      IN:
           ---                                      ---
             STORAGE =        6704.3345               STORAGE =         730.3663
       CONSTANT HEAD =         436.8832         CONSTANT HEAD =           0.0000
       RIVER LEAKAGE =        8891.5342         RIVER LEAKAGE =           0.0000

            TOTAL IN =       16032.7520              TOTAL IN =         730.3663

          OUT:                                     OUT:
          ----                                     ----
             STORAGE =        8432.4473               STORAGE =           0.0000
       CONSTANT HEAD =        1762.5300         CONSTANT HEAD =         135.3561
       RIVER LEAKAGE =        5837.7651         RIVER LEAKAGE =         595.0088

           TOTAL OUT =       16032.7422             TOTAL OUT =         730.3649

            IN - OUT =       9.7656E-03              IN - OUT =       1.4648E-03

 PERCENT DISCREPANCY =           0.00     PERCENT DISCREPANCY =           0.00






         TIME SUMMARY AT END OF TIME STEP    7 IN STRESS PERIOD    3
                    SECONDS     MINUTES      HOURS       DAYS        YEARS
                    -----------------------------------------------------------
   TIME STEP LENGTH  43200.      720.00      12.000     0.50000     1.36893E-03
 STRESS PERIOD TIME 3.02400E+05  5040.0      84.000      3.5000     9.58248E-03
         TOTAL TIME 8.20800E+05  13680.      228.00      9.5000     2.60096E-02
1
 
 SOLVING FOR HEAD 

 OUTPUT CONTROL FOR STRESS PERIOD    3   TIME STEP    8
    SAVE HEAD FOR ALL LAYERS
    SAVE DRAWDOWN FOR ALL LAYERS
    SAVE BUDGET
    PRINT HEAD FOR ALL LAYERS
    PRINT BUDGET
 UBDSV1 SAVING "         STORAGE" ON UNIT  53 AT TIME STEP  8, STRESS PERIOD   3
 UBDSV2 SAVING "   CONSTANT HEAD" ON UNIT  53 AT TIME STEP  8, STRESS PERIOD   3
 UBDSV1 SAVING "FLOW RIGHT FACE " ON UNIT  53 AT TIME STEP  8, STRESS PERIOD   3
 UBDSV1 SAVING "FLOW FRONT FACE " ON UNIT  53 AT TIME STEP  8, STRESS PERIOD   3
1
              HEAD IN LAYER   1 AT END OF TIME STEP   8 IN STRESS PERIOD    3
  ---------------------------------------------------------------------------

            1           2           3           4           5           6           7           8           9          10
           11          12          13          14          15          16          17          18          19          20
           21          22          23          24          25
 ........................................................................................................................
   1    2.000       2.033       2.058       2.071       2.063       2.031       1.969       1.877       1.752       1.598    
        1.419       1.221       1.013       1.221       1.419       1.598       1.752       1.877       1.969       2.031    
        2.063       2.071       2.058       2.033       2.000    
   2    2.000       2.033       2.058       2.071       2.063       2.031       1.969       1.877       1.752       1.598    
        1.419       1.221       1.013       1.221       1.419       1.598       1.752       1.877       1.969       2.031    
        2.063       2.071       2.058       2.033       2.000    
   3    2.000       2.033       2.058       2.071       2.063       2.031       1.969       1.877       1.752       1.598    
        1.419       1.221       1.013       1.221       1.419       1.598       1.752       1.877       1.969       2.031    
        2.063       2.071       2.058       2.033       2.000    
   4    2.000       2.033       2.058       2.071       2.063       2.031       1.969       1.877       1.752       1.598    
        1.419       1.221       1.013       1.221       1.419       1.598       1.752       1.877       1.969       2.031    
        2.063       2.071       2.058       2.033       2.000    
   5    2.000       2.033       2.058       2.071       2.063       2.031       1.969       1.877       1.752       1.598    
        1.419       1.221       1.013       1.221       1.419       1.598       1.752       1.877       1.969       2.031    
        2.063       2.071       2.058       2.033       2.000    
   6    2.000       2.033       2.058       2.071       2.063       2.031       1.969       1.877       1.752       1.598    
        1.419       1.221       1.013       1.221       1.419       1.598       1.752       1.877       1.969       2.031    
        2.063       2.071       2.058       2.033       2.000    
   7    2.000       2.033       2.058       2.071       2.063       2.031       1.969       1.877       1.752       1.598    
        1.419       1.221       1.013       1.221       1.419       1.598       1.752       1.877       1.969       2.031    
        2.063       2.071       2.058       2.033       2.000    
   8    2.000       2.033       2.058       2.071       2.063       2.031       1.969       1.877       1.752       1.598    
        1.419       1.221       1.013       1.221       1.419       1.598       1.752       1.877       1.969       2.031    
        2.063       2.071       2.058       2.033       2.000    
   9    2.000       2.033       2.058       2.071       2.063       2.031       1.969       1.877       1.752       1.598    
        1.419       1.221       1.013       1.221       1.419       1.598       1.752       1.877       1.969       2.031    
        2.063       2.071       2.058       2.033       2.000    
  10    2.000       2.033       2.058       2.071       2.063       2.031       1.969       1.877       1.752       1.598    
        1.419       1.221       1.013       1.221       1.419       1.598       1.752       1.877       1.969       2.031    
        2.063       2.071       2.058       2.033       2.000    
  11    2.000       2.033       2.058       2.071       2.063       2.031       1.969       1.877       1.752       1.598    
        1.419       1.221       1.013       1.221       1.419       1.598       1.752       1.877       1.969       2.031    
        2.063       2.071       2.058       2.033       2.000    
  12    2.000       2.033       2.058       2.071       2.063       2.031       1.969       1.877       1.752       1.598    
        1.419       1.221       1.013       1.221       1.419       1.598       1.752       1.877       1.969       2.031    
        2.063       2.071       2.058       2.033       2.000    
  13    2.000       2.033       2.058       2.071       2.063       2.031       1.969       1.877       1.752       1.598    
        1.419       1.221       1.013       1.221       1.419       1.598       1.752       1.877       1.969       2.031    
        2.063       2.071       2.058       2.033       2.000    
  14    2.000       2.033       2.058       2.071       2.063       2.031       1.969       1.877       1.752       1.598    
        1.419       1.221       1.013       1.221       1.419       1.598       1.752       1.877       1.969       2.031    
        2.063       2.071       2.058       2.033       2.000    
  15    2.000       2.033       2.058       2.071       2.063       2.031       1.969       1.877       1.752       1.598    
        1.419       1.221       1.013       1.221       1.419       1.598       1.752       1.877       1.969       2.031    
        2.063       2.071       2.058       2.033       2.000    
  16    2.000       2.033       2.058       2.071       2.063       2.031       1.969       1.877       1.752       1.598    
        1.419       1.221       1.013       1.221       1.419       1.598       1.752       1.877       1.969       2.031    
        2.063       2.071       2.058       2.033       2.000    
  17    2.000       2.033       2.058       2.071       2.063       2.031       1.969       1.877       1.752       1.598    
        1.419       1.221       1.013       1.221       1.419       1.598       1.752       1.877       1.969       2.031    
        2.063       2.071       2.058       2.033       2.000    
  18    2.000       2.033       2.058       2.071       2.063       2.031       1.969       1.877       1.752       1.598    
        1.419       1.221       1.013       1.221       1.419       1.598       1.752       1.877       1.969       2.031    
        2.063       2.071       2.058       2.033       2.000    
  19    2.000       2.033       2.058       2.071       2.063       2.031       1.969       1.877       1.752       1.598    
        1.419       1.221       1.013       1.221       1.419       1.598       1.752       1.877       1.969       2.031    
        2.063       2.071       2.058       2.033       2.000    
  20    2.000       2.033       2.058       2.071       2.063       2.031       1.969       1.877       1.752       1.598    
        1.419       1.221       1.013       1.221       1.419       1.598       1.752       1.877       1.969       2.031    
        2.063       2.071       2.058       2.033       2.000    
  21    2.000       2.033       2.058       2.071       2.063       2.031       1.969       1.877       1.752       1.598    
        1.419       1.221       1.013       1.221       1.419       1.598       1.752       1.877       1.969       2.031    
        2.063       2.071       2.058       2.033       2.000    
  22    2.000       2.033       2.058       2.071       2.063       2.031       1.969       1.877       1.752       1.598    
        1.419       1.221       1.013       1.221       1.419       1.598       1.752       1.877       1.969       2.031    
        2.063       2.071       2.058       2.033       2.000    
  23    2.000       2.033       2.058       2.071       2.063       2.031       1.969       1.877       1.752       1.598    
        1.419       1.221       1.013       1.221       1.419       1.598       1.752       1.877       1.969       2.031    
        2.063       2.071       2.058       2.033       2.000    
  24    2.000       2.033       2.058       2.071       2.063       2.031       1.969       1.877       1.752       1.598    
        1.419       1.221       1.013       1.221       1.419       1.598       1.752       1.877       1.969       2.031    
        2.063       2.071       2.058       2.033       2.000    
  25    2.000       2.033       2.058       2.071       2.063       2.031       1.969       1.877       1.752       1.598    
        1.419       1.221       1.013       1.221       1.419       1.598       1.752       1.877       1.969       2.031    
        2.063       2.071       2.058       2.033       2.000    

 HEAD WILL BE SAVED ON UNIT   51 AT END OF TIME STEP    8, STRESS PERIOD    3

 DRAWDOWN WILL BE SAVED ON UNIT   52 AT END OF TIME STEP    8, STRESS PERIOD    3
1
  VOLUMETRIC BUDGET FOR ENTIRE MODEL AT END OF TIME STEP    8, STRESS PERIOD   3
  ------------------------------------------------------------------------------

     CUMULATIVE VOLUMES      L**3       RATES FOR THIS TIME STEP      L**3/T
     ------------------                 ------------------------

           IN:                                      IN:
           ---                                      ---
             STORAGE =        7005.4600               STORAGE =         602.2510
       CONSTANT HEAD =         436.8832         CONSTANT HEAD =           0.0000
       RIVER LEAKAGE =        8891.5342         RIVER LEAKAGE =           0.0000

            TOTAL IN =       16333.8770              TOTAL IN =         602.2510

          OUT:                                     OUT:
          ----                                     ----
             STORAGE =        8432.4473               STORAGE =           0.0000
       CONSTANT HEAD =        1803.3088         CONSTANT HEAD =          81.5576
       RIVER LEAKAGE =        6098.1118         RIVER LEAKAGE =         520.6936

           TOTAL OUT =       16333.8672             TOTAL OUT =         602.2512

            IN - OUT =       9.7656E-03              IN - OUT =      -2.4414E-04

 PERCENT DISCREPANCY =           0.00     PERCENT DISCREPANCY =          -0.00






         TIME SUMMARY AT END OF TIME STEP    8 IN STRESS PERIOD    3
                    SECONDS     MINUTES      HOURS       DAYS        YEARS
                    -----------------------------------------------------------
   TIME STEP LENGTH  43200.      720.00      12.000     0.50000     1.36893E-03
 STRESS PERIOD TIME 3.45600E+05  5760.0      96.000      4.0000     1.09514E-02
         TOTAL TIME 8.64000E+05  14400.      240.00      10.000     2.73785E-02
1
 
 SOLVING FOR HEAD 

 OUTPUT CONTROL FOR STRESS PERIOD    3   TIME STEP    9
    SAVE HEAD FOR ALL LAYERS
    SAVE DRAWDOWN FOR ALL LAYERS
    SAVE BUDGET
    PRINT HEAD FOR ALL LAYERS
    PRINT BUDGET
 UBDSV1 SAVING "         STORAGE" ON UNIT  53 AT TIME STEP  9, STRESS PERIOD   3
 UBDSV2 SAVING "   CONSTANT HEAD" ON UNIT  53 AT TIME STEP  9, STRESS PERIOD   3
 UBDSV1 SAVING "FLOW RIGHT FACE " ON UNIT  53 AT TIME STEP  9, STRESS PERIOD   3
 UBDSV1 SAVING "FLOW FRONT FACE " ON UNIT  53 AT TIME STEP  9, STRESS PERIOD   3
1
              HEAD IN LAYER   1 AT END OF TIME STEP   9 IN STRESS PERIOD    3
  ---------------------------------------------------------------------------

            1           2           3           4           5           6           7           8           9          10
           11          12          13          14          15          16          17          18          19          20
           21          22          23          24          25
 ........................................................................................................................
   1    2.000       2.014       2.022       2.018       1.997       1.955       1.888       1.796       1.678       1.535    
        1.373       1.196       1.012       1.196       1.373       1.535       1.678       1.796       1.888       1.955    
        1.997       2.018       2.022       2.014       2.000    
   2    2.000       2.014       2.022       2.018       1.997       1.955       1.888       1.796       1.678       1.535    
        1.373       1.196       1.012       1.196       1.373       1.535       1.678       1.796       1.888       1.955    
        1.997       2.018       2.022       2.014       2.000    
   3    2.000       2.014       2.022       2.018       1.997       1.955       1.888       1.796       1.678       1.535    
        1.373       1.196       1.012       1.196       1.373       1.535       1.678       1.796       1.888       1.955    
        1.997       2.018       2.022       2.014       2.000    
   4    2.000       2.014       2.022       2.018       1.997       1.955       1.888       1.796       1.678       1.535    
        1.373       1.196       1.012       1.196       1.373       1.535       1.678       1.796       1.888       1.955    
        1.997       2.018       2.022       2.014       2.000    
   5    2.000       2.014       2.022       2.018       1.997       1.955       1.888       1.796       1.678       1.535    
        1.373       1.196       1.012       1.196       1.373       1.535       1.678       1.796       1.888       1.955    
        1.997       2.018       2.022       2.014       2.000    
   6    2.000       2.014       2.022       2.018       1.997       1.955       1.888       1.796       1.678       1.535    
        1.373       1.196       1.012       1.196       1.373       1.535       1.678       1.796       1.888       1.955    
        1.997       2.018       2.022       2.014       2.000    
   7    2.000       2.014       2.022       2.018       1.997       1.955       1.888       1.796       1.678       1.535    
        1.373       1.196       1.012       1.196       1.373       1.535       1.678       1.796       1.888       1.955    
        1.997       2.018       2.022       2.014       2.000    
   8    2.000       2.014       2.022       2.018       1.997       1.955       1.888       1.796       1.678       1.535    
        1.373       1.196       1.012       1.196       1.373       1.535       1.678       1.796       1.888       1.955    
        1.997       2.018       2.022       2.014       2.000    
   9    2.000       2.014       2.022       2.018       1.997       1.955       1.888       1.796       1.678       1.535    
        1.373       1.196       1.012       1.196       1.373       1.535       1.678       1.796       1.888       1.955    
        1.997       2.018       2.022       2.014       2.000    
  10    2.000       2.014       2.022       2.018       1.997       1.955       1.888       1.796       1.678       1.535    
        1.373       1.196       1.012       1.196       1.373       1.535       1.678       1.796       1.888       1.955    
        1.997       2.018       2.022       2.014       2.000    
  11    2.000       2.014       2.022       2.018       1.997       1.955       1.888       1.796       1.678       1.535    
        1.373       1.196       1.012       1.196       1.373       1.535       1.678       1.796       1.888       1.955    
        1.997       2.018       2.022       2.014       2.000    
  12    2.000       2.014       2.022       2.018       1.997       1.955       1.888       1.796       1.678       1.535    
        1.373       1.196       1.012       1.196       1.373       1.535       1.678       1.796       1.888       1.955    
        1.997       2.018       2.022       2.014       2.000    
  13    2.000       2.014       2.022       2.018       1.997       1.955       1.888       1.796       1.678       1.535    
        1.373       1.196       1.012       1.196       1.373       1.535       1.678       1.796       1.888       1.955    
        1.997       2.018       2.022       2.014       2.000    
  14    2.000       2.014       2.022       2.018       1.997       1.955       1.888       1.796       1.678       1.535    
        1.373       1.196       1.012       1.196       1.373       1.535       1.678       1.796       1.888       1.955    
        1.997       2.018       2.022       2.014       2.000    
  15    2.000       2.014       2.022       2.018       1.997       1.955       1.888       1.796       1.678       1.535    
        1.373       1.196       1.012       1.196       1.373       1.535       1.678       1.796       1.888       1.955    
        1.997       2.018       2.022       2.014       2.000    
  16    2.000       2.014       2.022       2.018       1.997       1.955       1.888       1.796       1.678       1.535    
        1.373       1.196       1.012       1.196       1.373       1.535       1.678       1.796       1.888       1.955    
        1.997       2.018       2.022       2.014       2.000    
  17    2.000       2.014       2.022       2.018       1.997       1.955       1.888       1.796       1.678       1.535    
        1.373       1.196       1.012       1.196       1.373       1.535       1.678       1.796       1.888       1.955    
        1.997       2.018       2.022       2.014       2.000    
  18    2.000       2.014       2.022       2.018       1.997       1.955       1.888       1.796       1.678       1.535    
        1.373       1.196       1.012       1.196       1.373       1.535       1.678       1.796       1.888       1.955    
        1.997       2.018       2.022       2.014       2.000    
  19    2.000       2.014       2.022       2.018       1.997       1.955       1.888       1.796       1.678       1.535    
        1.373       1.196       1.012       1.196       1.373       1.535       1.678       1.796       1.888       1.955    
        1.997       2.018       2.022       2.014       2.000    
  20    2.000       2.014       2.022       2.018       1.997       1.955       1.888       1.796       1.678       1.535    
        1.373       1.196       1.012       1.196       1.373       1.535       1.678       1.796       1.888       1.955    
        1.997       2.018       2.022       2.014       2.000    
  21    2.000       2.014       2.022       2.018       1.997       1.955       1.888       1.796       1.678       1.535    
        1.373       1.196       1.012       1.196       1.373       1.535       1.678       1.796       1.888       1.955    
        1.997       2.018       2.022       2.014       2.000    
  22    2.000       2.014       2.022       2.018       1.997       1.955       1.888       1.796       1.678       1.535    
        1.373       1.196       1.012       1.196       1.373       1.535       1.678       1.796       1.888       1.955    
        1.997       2.018       2.022       2.014       2.000    
  23    2.000       2.014       2.022       2.018       1.997       1.955       1.888       1.796       1.678       1.535    
        1.373       1.196       1.012       1.196       1.373       1.535       1.678       1.796       1.888       1.955    
        1.997       2.018       2.022       2.014       2.000    
  24    2.000       2.014       2.022       2.018       1.997       1.955       1.888       1.796       1.678       1.535    
        1.373       1.196       1.012       1.196       1.373       1.535       1.678       1.796       1.888       1.955    
        1.997       2.018       2.022       2.014       2.000    
  25    2.000       2.014       2.022       2.018       1.997       1.955       1.888       1.796       1.678       1.535    
        1.373       1.196       1.012       1.196       1.373       1.535       1.678       1.796       1.888       1.955    
        1.997       2.018       2.022       2.014       2.000    

 HEAD WILL BE SAVED ON UNIT   51 AT END OF TIME STEP    9, STRESS PERIOD    3

 DRAWDOWN WILL BE SAVED ON UNIT   52 AT END OF TIME STEP    9, STRESS PERIOD    3
1
  VOLUMETRIC BUDGET FOR ENTIRE MODEL AT END OF TIME STEP    9, STRESS PERIOD   3
  ------------------------------------------------------------------------------

     CUMULATIVE VOLUMES      L**3       RATES FOR THIS TIME STEP      L**3/T
     ------------------                 ------------------------

           IN:                                      IN:
           ---                                      ---
             STORAGE =        7253.9902               STORAGE =         497.0608
       CONSTANT HEAD =         436.8832         CONSTANT HEAD =           0.0000
       RIVER LEAKAGE =        8891.5342         RIVER LEAKAGE =           0.0000

            TOTAL IN =       16582.4082              TOTAL IN =         497.0608

          OUT:                                     OUT:
          ----                                     ----
             STORAGE =        8432.4473               STORAGE =           0.0000
       CONSTANT HEAD =        1820.5862         CONSTANT HEAD =          34.5548
       RIVER LEAKAGE =        6329.3643         RIVER LEAKAGE =         462.5048

           TOTAL OUT =       16582.3984             TOTAL OUT =         497.0596

            IN - OUT =       9.7656E-03              IN - OUT =       1.2512E-03

 PERCENT DISCREPANCY =           0.00     PERCENT DISCREPANCY =           0.00






         TIME SUMMARY AT END OF TIME STEP    9 IN STRESS PERIOD    3
                    SECONDS     MINUTES      HOURS       DAYS        YEARS
                    -----------------------------------------------------------
   TIME STEP LENGTH  43200.      720.00      12.000     0.50000     1.36893E-03
 STRESS PERIOD TIME 3.88800E+05  6480.0      108.00      4.5000     1.23203E-02
         TOTAL TIME 9.07200E+05  15120.      252.00      10.500     2.87474E-02
1
 
 SOLVING FOR HEAD 

 OUTPUT CONTROL FOR STRESS PERIOD    3   TIME STEP   10
    SAVE HEAD FOR ALL LAYERS
    SAVE DRAWDOWN FOR ALL LAYERS
    SAVE BUDGET
    PRINT HEAD FOR ALL LAYERS
    PRINT BUDGET
 UBDSV1 SAVING "         STORAGE" ON UNIT  53 AT TIME STEP 10, STRESS PERIOD   3
 UBDSV2 SAVING "   CONSTANT HEAD" ON UNIT  53 AT TIME STEP 10, STRESS PERIOD   3
 UBDSV1 SAVING "FLOW RIGHT FACE " ON UNIT  53 AT TIME STEP 10, STRESS PERIOD   3
 UBDSV1 SAVING "FLOW FRONT FACE " ON UNIT  53 AT TIME STEP 10, STRESS PERIOD   3
1
              HEAD IN LAYER   1 AT END OF TIME STEP  10 IN STRESS PERIOD    3
  ---------------------------------------------------------------------------

            1           2           3           4           5           6           7           8           9          10
           11          12          13          14          15          16          17          18          19          20
           21          22          23          24          25
 ........................................................................................................................
   1    2.000       1.998       1.990       1.973       1.941       1.891       1.821       1.730       1.617       1.485    
        1.337       1.177       1.010       1.177       1.337       1.485       1.617       1.730       1.821       1.891    
        1.941       1.973       1.990       1.998       2.000    
   2    2.000       1.998       1.990       1.973       1.941       1.891       1.821       1.730       1.617       1.485    
        1.337       1.177       1.010       1.177       1.337       1.485       1.617       1.730       1.821       1.891    
        1.941       1.973       1.990       1.998       2.000    
   3    2.000       1.998       1.990       1.973       1.941       1.891       1.821       1.730       1.617       1.485    
        1.337       1.177       1.010       1.177       1.337       1.485       1.617       1.730       1.821       1.891    
        1.941       1.973       1.990       1.998       2.000    
   4    2.000       1.998       1.990       1.973       1.941       1.891       1.821       1.730       1.617       1.485    
        1.337       1.177       1.010       1.177       1.337       1.485       1.617       1.730       1.821       1.891    
        1.941       1.973       1.990       1.998       2.000    
   5    2.000       1.998       1.990       1.973       1.941       1.891       1.821       1.730       1.617       1.485    
        1.337       1.177       1.010       1.177       1.337       1.485       1.617       1.730       1.821       1.891    
        1.941       1.973       1.990       1.998       2.000    
   6    2.000       1.998       1.990       1.973       1.941       1.891       1.821       1.730       1.617       1.485    
        1.337       1.177       1.010       1.177       1.337       1.485       1.617       1.730       1.821       1.891    
        1.941       1.973       1.990       1.998       2.000    
   7    2.000       1.998       1.990       1.973       1.941       1.891       1.821       1.730       1.617       1.485    
        1.337       1.177       1.010       1.177       1.337       1.485       1.617       1.730       1.821       1.891    
        1.941       1.973       1.990       1.998       2.000    
   8    2.000       1.998       1.990       1.973       1.941       1.891       1.821       1.730       1.617       1.485    
        1.337       1.177       1.010       1.177       1.337       1.485       1.617       1.730       1.821       1.891    
        1.941       1.973       1.990       1.998       2.000    
   9    2.000       1.998       1.990       1.973       1.941       1.891       1.821       1.730       1.617       1.485    
        1.337       1.177       1.010       1.177       1.337       1.485       1.617       1.730       1.821       1.891    
        1.941       1.973       1.990       1.998       2.000    
  10    2.000       1.998       1.990       1.973       1.941       1.891       1.821       1.730       1.617       1.485    
        1.337       1.177       1.010       1.177       1.337       1.485       1.617       1.730       1.821       1.891    
        1.941       1.973       1.990       1.998       2.000    
  11    2.000       1.998       1.990       1.973       1.941       1.891       1.821       1.730       1.617       1.485    
        1.337       1.177       1.010       1.177       1.337       1.485       1.617       1.730       1.821       1.891    
        1.941       1.973       1.990       1.998       2.000    
  12    2.000       1.998       1.990       1.973       1.941       1.891       1.821       1.730       1.617       1.485    
        1.337       1.177       1.010       1.177       1.337       1.485       1.617       1.730       1.821       1.891    
        1.941       1.973       1.990       1.998       2.000    
  13    2.000       1.998       1.990       1.973       1.941       1.891       1.821       1.730       1.617       1.485    
        1.337       1.177       1.010       1.177       1.337       1.485       1.617       1.730       1.821       1.891    
        1.941       1.973       1.990       1.998       2.000    
  14    2.000       1.998       1.990       1.973       1.941       1.891       1.821       1.730       1.617       1.485    
        1.337       1.177       1.010       1.177       1.337       1.485       1.617       1.730       1.821       1.891    
        1.941       1.973       1.990       1.998       2.000    
  15    2.000       1.998       1.990       1.973       1.941       1.891       1.821       1.730       1.617       1.485    
        1.337       1.177       1.010       1.177       1.337       1.485       1.617       1.730       1.821       1.891    
        1.941       1.973       1.990       1.998       2.000    
  16    2.000       1.998       1.990       1.973       1.941       1.891       1.821       1.730       1.617       1.485    
        1.337       1.177       1.010       1.177       1.337       1.485       1.617       1.730       1.821       1.891    
        1.941       1.973       1.990       1.998       2.000    
  17    2.000       1.998       1.990       1.973       1.941       1.891       1.821       1.730       1.617       1.485    
        1.337       1.177       1.010       1.177       1.337       1.485       1.617       1.730       1.821       1.891    
        1.941       1.973       1.990       1.998       2.000    
  18    2.000       1.998       1.990       1.973       1.941       1.891       1.821       1.730       1.617       1.485    
        1.337       1.177       1.010       1.177       1.337       1.485       1.617       1.730       1.821       1.891    
        1.941       1.973       1.990       1.998       2.000    
  19    2.000       1.998       1.990       1.973       1.941       1.891       1.821       1.730       1.617       1.485    
        1.337       1.177       1.010       1.177       1.337       1.485       1.617       1.730       1.821       1.891    
        1.941       1.973       1.990       1.998       2.000    
  20    2.000       1.998       1.990       1.973       1.941       1.891       1.821       1.730       1.617       1.485    
        1.337       1.177       1.010       1.177       1.337       1.485       1.617       1.730       1.821       1.891    
        1.941       1.973       1.990       1.998       2.000    
  21    2.000       1.998       1.990       1.973       1.941       1.891       1.821       1.730       1.617       1.485    
        1.337       1.177       1.010       1.177       1.337       1.485       1.617       1.730       1.821       1.891    
        1.941       1.973       1.990       1.998       2.000    
  22    2.000       1.998       1.990       1.973       1.941       1.891       1.821       1.730       1.617       1.485    
        1.337       1.177       1.010       1.177       1.337       1.485       1.617       1.730       1.821       1.891    
        1.941       1.973       1.990       1.998       2.000    
  23    2.000       1.998       1.990       1.973       1.941       1.891       1.821       1.730       1.617       1.485    
        1.337       1.177       1.010       1.177       1.337       1.485       1.617       1.730       1.821       1.891    
        1.941       1.973       1.990       1.998       2.000    
  24    2.000       1.998       1.990       1.973       1.941       1.891       1.821       1.730       1.617       1.485    
        1.337       1.177       1.010       1.177       1.337       1.485       1.617       1.730       1.821       1.891    
        1.941       1.973       1.990       1.998       2.000    
  25    2.000       1.998       1.990       1.973       1.941       1.891       1.821       1.730       1.617       1.485    
        1.337       1.177       1.010       1.177       1.337       1.485       1.617       1.730       1.821       1.891    
        1.941       1.973       1.990       1.998       2.000    

 HEAD WILL BE SAVED ON UNIT   51 AT END OF TIME STEP   10, STRESS PERIOD    3

 DRAWDOWN WILL BE SAVED ON UNIT   52 AT END OF TIME STEP   10, STRESS PERIOD    3
1
  VOLUMETRIC BUDGET FOR ENTIRE MODEL AT END OF TIME STEP   10, STRESS PERIOD   3
  ------------------------------------------------------------------------------

     CUMULATIVE VOLUMES      L**3       RATES FOR THIS TIME STEP      L**3/T
     ------------------                 ------------------------

           IN:                                      IN:
           ---                                      ---
             STORAGE =        7459.1914               STORAGE =         410.4023
       CONSTANT HEAD =         439.7439         CONSTANT HEAD =           5.7215
       RIVER LEAKAGE =        8891.5342         RIVER LEAKAGE =           0.0000

            TOTAL IN =       16790.4688              TOTAL IN =         416.1239

          OUT:                                     OUT:
          ----                                     ----
             STORAGE =        8432.4473               STORAGE =           0.0000
       CONSTANT HEAD =        1820.5862         CONSTANT HEAD =           0.0000
       RIVER LEAKAGE =        6537.4268         RIVER LEAKAGE =         416.1252

           TOTAL OUT =       16790.4609             TOTAL OUT =         416.1252

            IN - OUT =       7.8125E-03              IN - OUT =      -1.3733E-03

 PERCENT DISCREPANCY =           0.00     PERCENT DISCREPANCY =          -0.00






         TIME SUMMARY AT END OF TIME STEP   10 IN STRESS PERIOD    3
                    SECONDS     MINUTES      HOURS       DAYS        YEARS
                    -----------------------------------------------------------
   TIME STEP LENGTH  43200.      720.00      12.000     0.50000     1.36893E-03
 STRESS PERIOD TIME 4.32000E+05  7200.0      120.00      5.0000     1.36893E-02
         TOTAL TIME 9.50400E+05  15840.      264.00      11.000     3.01164E-02
1

 Run end date and time (yyyy/mm/dd hh:mm:ss): 2019/12/24 12:06:39
 Elapsed run time:  0.036 Seconds

